288
# CELL(GENH):   15.16400    0.00000    0.00000    0.00000   10.74200    0.00000   -1.90460    0.00000   17.12836 positions{angstrom} cell{angstrom}
         C     3.3729660000e-01     1.1681248700e+00     1.5322665800e+00
         C     2.5014033900e+00     4.2028751100e+00     7.0319134500e+00
         C     4.8730537500e+00     3.8536249100e+00     2.7498237200e+00
         C     1.3129646300e+01     1.5173749100e+00     5.8143562300e+00
         C     9.2261763000e-01     2.9747625000e+00     2.5631100800e+00
         C     1.9160825300e+00     2.3962375400e+00     6.0010697500e+00
         C     4.2877332000e+00     2.8926257000e-01     1.7189798000e+00
         C     1.3714966900e+01     5.0817372300e+00     6.8452000700e+00
         C     1.6339352900e+00     2.9416303200e+00     1.3869744500e+00
         C     1.2047649000e+00     2.4293695100e+00     7.1772053900e+00
         C     3.5764153400e+00     2.5613076000e-01     2.8951157300e+00
         C     1.4426284900e+01     5.1148691900e+00     5.6690642600e+00
         C     3.3729660000e-01     6.5391248700e+00     1.5322665800e+00
         C     2.5014033900e+00     9.5738751100e+00     7.0319134500e+00
         C     4.8730537500e+00     9.2246249100e+00     2.7498237200e+00
         C     1.3129646300e+01     6.8883749100e+00     5.8143562300e+00
         C     9.2261763000e-01     8.3457625000e+00     2.5631100800e+00
         C     1.9160825300e+00     7.7672375400e+00     6.0010697500e+00
         C     4.2877332000e+00     5.6602625700e+00     1.7189798000e+00
         C     1.3714966900e+01     1.0452737230e+01     6.8452000700e+00
         C     1.6339352900e+00     8.3126303200e+00     1.3869744500e+00
         C     1.2047649000e+00     7.8003695100e+00     7.1772053900e+00
         C     3.5764153400e+00     5.6271307600e+00     2.8951157300e+00
         C     1.4426284900e+01     1.0485869190e+01     5.6690642600e+00
         C     7.9192966000e+00     1.1681248700e+00     1.5322665800e+00
         C     1.0083403390e+01     4.2028751100e+00     7.0319134500e+00
         C     1.2455053750e+01     3.8536249100e+00     2.7498237200e+00
         C     5.5476463000e+00     1.5173749100e+00     5.8143562300e+00
         C     8.5046176300e+00     2.9747625000e+00     2.5631100800e+00
         C     9.4980825300e+00     2.3962375400e+00     6.0010697500e+00
         C     1.1869733200e+01     2.8926257000e-01     1.7189798000e+00
         C     6.1329669000e+00     5.0817372300e+00     6.8452000700e+00
         C     9.2159352900e+00     2.9416303200e+00     1.3869744500e+00
         C     8.7867649000e+00     2.4293695100e+00     7.1772053900e+00
         C     1.1158415340e+01     2.5613076000e-01     2.8951157300e+00
         C     6.8442849000e+00     5.1148691900e+00     5.6690642600e+00
         C     3.1759966000e+00     1.1681248700e+00     1.0096446580e+01
         C     5.3401033900e+00     4.2028751100e+00     1.5596093450e+01
         C     7.7117537500e+00     3.8536249100e+00     1.1314003720e+01
         C     8.0434630000e-01     1.5173749100e+00     1.4378536230e+01
         C     3.7613176300e+00     2.9747625000e+00     1.1127290080e+01
         C     4.7547825300e+00     2.3962375400e+00     1.4565249750e+01
         C     7.1264332000e+00     2.8926257000e-01     1.0283159800e+01
         C     1.3896669000e+00     5.0817372300e+00     1.5409380070e+01
         C     4.4726352900e+00     2.9416303200e+00     9.9511544500e+00
         C     4.0434649000e+00     2.4293695100e+00     1.5741385390e+01
         C     6.4151153400e+00     2.5613076000e-01     1.1459295730e+01
         C     2.1009849000e+00     5.1148691900e+00     1.4233244260e+01
         C     7.9192966000e+00     6.5391248700e+00     1.5322665800e+00
         C     1.0083403390e+01     9.5738751100e+00     7.0319134500e+00
         C     1.2455053750e+01     9.2246249100e+00     2.7498237200e+00
         C     5.5476463000e+00     6.8883749100e+00     5.8143562300e+00
         C     8.5046176300e+00     8.3457625000e+00     2.5631100800e+00
         C     9.4980825300e+00     7.7672375400e+00     6.0010697500e+00
         C     1.1869733200e+01     5.6602625700e+00     1.7189798000e+00
         C     6.1329669000e+00     1.0452737230e+01     6.8452000700e+00
         C     9.2159352900e+00     8.3126303200e+00     1.3869744500e+00
         C     8.7867649000e+00     7.8003695100e+00     7.1772053900e+00
         C     1.1158415340e+01     5.6271307600e+00     2.8951157300e+00
         C     6.8442849000e+00     1.0485869190e+01     5.6690642600e+00
         C     3.1759966000e+00     6.5391248700e+00     1.0096446580e+01
         C     5.3401033900e+00     9.5738751100e+00     1.5596093450e+01
         C     7.7117537500e+00     9.2246249100e+00     1.1314003720e+01
         C     8.0434630000e-01     6.8883749100e+00     1.4378536230e+01
         C     3.7613176300e+00     8.3457625000e+00     1.1127290080e+01
         C     4.7547825300e+00     7.7672375400e+00     1.4565249750e+01
         C     7.1264332000e+00     5.6602625700e+00     1.0283159800e+01
         C     1.3896669000e+00     1.0452737230e+01     1.5409380070e+01
         C     4.4726352900e+00     8.3126303200e+00     9.9511544500e+00
         C     4.0434649000e+00     7.8003695100e+00     1.5741385390e+01
         C     6.4151153400e+00     5.6271307600e+00     1.1459295730e+01
         C     2.1009849000e+00     1.0485869190e+01     1.4233244260e+01
         C     1.0757996600e+01     1.1681248700e+00     1.0096446580e+01
         C     1.2922103390e+01     4.2028751100e+00     1.5596093450e+01
         C     1.2975375000e-01     3.8536249100e+00     1.1314003720e+01
         C     8.3863463000e+00     1.5173749100e+00     1.4378536230e+01
         C     1.1343317630e+01     2.9747625000e+00     1.1127290080e+01
         C     1.2336782530e+01     2.3962375400e+00     1.4565249750e+01
         C    -4.5556680000e-01     2.8926257000e-01     1.0283159800e+01
         C     8.9716669000e+00     5.0817372300e+00     1.5409380070e+01
         C     1.2054635290e+01     2.9416303200e+00     9.9511544500e+00
         C     1.1625464900e+01     2.4293695100e+00     1.5741385390e+01
         C    -1.1668846600e+00     2.5613076000e-01     1.1459295730e+01
         C     9.6829849000e+00     5.1148691900e+00     1.4233244260e+01
         C     1.0757996600e+01     6.5391248700e+00     1.0096446580e+01
         C     1.2922103390e+01     9.5738751100e+00     1.5596093450e+01
         C     1.2975375000e-01     9.2246249100e+00     1.1314003720e+01
         C     8.3863463000e+00     6.8883749100e+00     1.4378536230e+01
         C     1.1343317630e+01     8.3457625000e+00     1.1127290080e+01
         C     1.2336782530e+01     7.7672375400e+00     1.4565249750e+01
         C    -4.5556680000e-01     5.6602625700e+00     1.0283159800e+01
         C     8.9716669000e+00     1.0452737230e+01     1.5409380070e+01
         C     1.2054635290e+01     8.3126303200e+00     9.9511544500e+00
         C     1.1625464900e+01     7.8003695100e+00     1.5741385390e+01
         C    -1.1668846600e+00     5.6271307600e+00     1.1459295730e+01
         C     9.6829849000e+00     1.0485869190e+01     1.4233244260e+01
         H     1.2061611600e+01     1.4313550900e+00     8.3966030500e+00
         H     5.9410884300e+00     3.9396446200e+00     1.6757695000e-01
         H     3.5694387500e+00     4.1168554300e+00     4.4496670000e+00
         H     1.4433261450e+01     1.2541446200e+00     4.1145130400e+00
         H    -1.3519440000e-01     2.2445223000e-01     1.2850047400e+00
         H     2.9738943300e+00     5.1465477700e+00     7.2791753800e+00
         H     5.3455446800e+00     2.9099521400e+00     2.9970854000e+00
         H     1.2657155330e+01     2.4610476800e+00     5.5670945700e+00
         H     9.5135157000e-01     3.7262515500e+00     3.3427564200e+00
         H     1.8873486500e+00     1.6447485600e+00     5.2214233500e+00
         H     4.2589989400e+00     1.0407514000e+00     9.3933366000e-01
         H     1.3743701140e+01     4.3302483600e+00     7.6248462000e+00
         H     2.3670642000e+00     3.6242820300e+00     9.7583871000e-01
         H     4.7163606000e-01     1.7467176800e+00     7.5883410900e+00
         H     2.8432866900e+00     9.3878230000e-01     3.3062512800e+00
         H    -4.5863500000e-03     4.4322177200e+00     5.2579287100e+00
         H     1.2061611600e+01     6.8023550900e+00     8.3966030500e+00
         H     5.9410884300e+00     9.3106446200e+00     1.6757695000e-01
         H     3.5694387500e+00     9.4878554300e+00     4.4496670000e+00
         H     1.4433261450e+01     6.6251446200e+00     4.1145130400e+00
         H    -1.3519440000e-01     5.5954522300e+00     1.2850047400e+00
         H     2.9738943300e+00     1.0517547770e+01     7.2791753800e+00
         H     5.3455446800e+00     8.2809521400e+00     2.9970854000e+00
         H     1.2657155330e+01     7.8320476800e+00     5.5670945700e+00
         H     9.5135157000e-01     9.0972515500e+00     3.3427564200e+00
         H     1.8873486500e+00     7.0157485600e+00     5.2214233500e+00
         H     4.2589989400e+00     6.4117514000e+00     9.3933366000e-01
         H     1.3743701140e+01     9.7012483600e+00     7.6248462000e+00
         H     2.3670642000e+00     8.9952820300e+00     9.7583871000e-01
         H     4.7163606000e-01     7.1177176800e+00     7.5883410900e+00
         H     2.8432866900e+00     6.3097823000e+00     3.3062512800e+00
         H    -4.5863500000e-03     9.8032177200e+00     5.2579287100e+00
         H     4.4796116000e+00     1.4313550900e+00     8.3966030500e+00
         H     1.3523088430e+01     3.9396446200e+00     1.6757695000e-01
         H     1.1151438750e+01     4.1168554300e+00     4.4496670000e+00
         H     6.8512614500e+00     1.2541446200e+00     4.1145130400e+00
         H     7.4468056000e+00     2.2445223000e-01     1.2850047400e+00
         H     1.0555894330e+01     5.1465477700e+00     7.2791753800e+00
         H     1.2927544680e+01     2.9099521400e+00     2.9970854000e+00
         H     5.0751553300e+00     2.4610476800e+00     5.5670945700e+00
         H     8.5333515700e+00     3.7262515500e+00     3.3427564200e+00
         H     9.4693486500e+00     1.6447485600e+00     5.2214233500e+00
         H     1.1840998940e+01     1.0407514000e+00     9.3933366000e-01
         H     6.1617011400e+00     4.3302483600e+00     7.6248462000e+00
         H     9.9490642000e+00     3.6242820300e+00     9.7583871000e-01
         H     8.0536360600e+00     1.7467176800e+00     7.5883410900e+00
         H     1.0425286690e+01     9.3878230000e-01     3.3062512800e+00
         H     7.5774136500e+00     4.4322177200e+00     5.2579287100e+00
         H    -2.6368840000e-01     1.4313550900e+00     1.6960783050e+01
         H     8.7797884300e+00     3.9396446200e+00     8.7317569500e+00
         H     6.4081387500e+00     4.1168554300e+00     1.3013847000e+01
         H     2.1079614500e+00     1.2541446200e+00     1.2678693040e+01
         H     2.7035056000e+00     2.2445223000e-01     9.8491847400e+00
         H     5.8125943300e+00     5.1465477700e+00     1.5843355380e+01
         H     8.1842446800e+00     2.9099521400e+00     1.1561265400e+01
         H     3.3185533000e-01     2.4610476800e+00     1.4131274570e+01
         H     3.7900515700e+00     3.7262515500e+00     1.1906936420e+01
         H     4.7260486500e+00     1.6447485600e+00     1.3785603350e+01
         H     7.0976989400e+00     1.0407514000e+00     9.5035136600e+00
         H     1.4184011400e+00     4.3302483600e+00     1.6189026200e+01
         H     5.2057642000e+00     3.6242820300e+00     9.5400187100e+00
         H     3.3103360600e+00     1.7467176800e+00     1.6152521090e+01
         H     5.6819866900e+00     9.3878230000e-01     1.1870431280e+01
         H     2.8341136500e+00     4.4322177200e+00     1.3822108710e+01
         H     4.4796116000e+00     6.8023550900e+00     8.3966030500e+00
         H     1.3523088430e+01     9.3106446200e+00     1.6757695000e-01
         H     1.1151438750e+01     9.4878554300e+00     4.4496670000e+00
         H     6.8512614500e+00     6.6251446200e+00     4.1145130400e+00
         H     7.4468056000e+00     5.5954522300e+00     1.2850047400e+00
         H     1.0555894330e+01     1.0517547770e+01     7.2791753800e+00
         H     1.2927544680e+01     8.2809521400e+00     2.9970854000e+00
         H     5.0751553300e+00     7.8320476800e+00     5.5670945700e+00
         H     8.5333515700e+00     9.0972515500e+00     3.3427564200e+00
         H     9.4693486500e+00     7.0157485600e+00     5.2214233500e+00
         H     1.1840998940e+01     6.4117514000e+00     9.3933366000e-01
         H     6.1617011400e+00     9.7012483600e+00     7.6248462000e+00
         H     9.9490642000e+00     8.9952820300e+00     9.7583871000e-01
         H     8.0536360600e+00     7.1177176800e+00     7.5883410900e+00
         H     1.0425286690e+01     6.3097823000e+00     3.3062512800e+00
         H     7.5774136500e+00     9.8032177200e+00     5.2579287100e+00
         H    -2.6368840000e-01     6.8023550900e+00     1.6960783050e+01
         H     8.7797884300e+00     9.3106446200e+00     8.7317569500e+00
         H     6.4081387500e+00     9.4878554300e+00     1.3013847000e+01
         H     2.1079614500e+00     6.6251446200e+00     1.2678693040e+01
         H     2.7035056000e+00     5.5954522300e+00     9.8491847400e+00
         H     5.8125943300e+00     1.0517547770e+01     1.5843355380e+01
         H     8.1842446800e+00     8.2809521400e+00     1.1561265400e+01
         H     3.3185533000e-01     7.8320476800e+00     1.4131274570e+01
         H     3.7900515700e+00     9.0972515500e+00     1.1906936420e+01
         H     4.7260486500e+00     7.0157485600e+00     1.3785603350e+01
         H     7.0976989400e+00     6.4117514000e+00     9.5035136600e+00
         H     1.4184011400e+00     9.7012483600e+00     1.6189026200e+01
         H     5.2057642000e+00     8.9952820300e+00     9.5400187100e+00
         H     3.3103360600e+00     7.1177176800e+00     1.6152521090e+01
         H     5.6819866900e+00     6.3097823000e+00     1.1870431280e+01
         H     2.8341136500e+00     9.8032177200e+00     1.3822108710e+01
         H     7.3183116000e+00     1.4313550900e+00     1.6960783050e+01
         H     1.1977884300e+00     3.9396446200e+00     8.7317569500e+00
         H    -1.1738612500e+00     4.1168554300e+00     1.3013847000e+01
         H     9.6899614500e+00     1.2541446200e+00     1.2678693040e+01
         H     1.0285505600e+01     2.2445223000e-01     9.8491847400e+00
         H     1.3394594330e+01     5.1465477700e+00     1.5843355380e+01
         H     6.0224468000e-01     2.9099521400e+00     1.1561265400e+01
         H     7.9138553300e+00     2.4610476800e+00     1.4131274570e+01
         H     1.1372051570e+01     3.7262515500e+00     1.1906936420e+01
         H     1.2308048650e+01     1.6447485600e+00     1.3785603350e+01
         H    -4.8430106000e-01     1.0407514000e+00     9.5035136600e+00
         H     9.0004011400e+00     4.3302483600e+00     1.6189026200e+01
         H     1.2787764200e+01     3.6242820300e+00     9.5400187100e+00
         H     1.0892336060e+01     1.7467176800e+00     1.6152521090e+01
         H     1.3263986690e+01     9.3878230000e-01     1.1870431280e+01
         H     1.0416113650e+01     4.4322177200e+00     1.3822108710e+01
         H     7.3183116000e+00     6.8023550900e+00     1.6960783050e+01
         H     1.1977884300e+00     9.3106446200e+00     8.7317569500e+00
         H    -1.1738612500e+00     9.4878554300e+00     1.3013847000e+01
         H     9.6899614500e+00     6.6251446200e+00     1.2678693040e+01
         H     1.0285505600e+01     5.5954522300e+00     9.8491847400e+00
         H     1.3394594330e+01     1.0517547770e+01     1.5843355380e+01
         H     6.0224468000e-01     8.2809521400e+00     1.1561265400e+01
         H     7.9138553300e+00     7.8320476800e+00     1.4131274570e+01
         H     1.1372051570e+01     9.0972515500e+00     1.1906936420e+01
         H     1.2308048650e+01     7.0157485600e+00     1.3785603350e+01
         H    -4.8430106000e-01     6.4117514000e+00     9.5035136600e+00
         H     9.0004011400e+00     9.7012483600e+00     1.6189026200e+01
         H     1.2787764200e+01     8.9952820300e+00     9.5400187100e+00
         H     1.0892336060e+01     7.1177176800e+00     1.6152521090e+01
         H     1.3263986690e+01     6.3097823000e+00     1.1870431280e+01
         H     1.0416113650e+01     9.8032177200e+00     1.3822108710e+01
         N     1.2479451700e+00     1.7882445400e+00     7.4211690000e-01
         N     1.5907549200e+00     3.5827552400e+00     7.8220630800e+00
         N     3.9624053500e+00     4.4737446300e+00     3.5399731800e+00
         N     1.4040294860e+01     8.9725534000e-01     5.0242068500e+00
         N     1.1121190000e-01     1.8596071800e+00     2.6492108100e+00
         N     2.7274881400e+00     3.5113929600e+00     5.9149691300e+00
         N     5.0991385400e+00     4.5451068700e+00     1.6328791900e+00
         N     1.2903561450e+01     8.2589284000e-01     6.9313007000e+00
         N     1.2479451700e+00     7.1592445400e+00     7.4211690000e-01
         N     1.5907549200e+00     8.9537552400e+00     7.8220630800e+00
         N     3.9624053500e+00     9.8447446300e+00     3.5399731800e+00
         N     1.4040294860e+01     6.2682553400e+00     5.0242068500e+00
         N     1.1121190000e-01     7.2306071800e+00     2.6492108100e+00
         N     2.7274881400e+00     8.8823929600e+00     5.9149691300e+00
         N     5.0991385400e+00     9.9161068700e+00     1.6328791900e+00
         N     1.2903561450e+01     6.1968928400e+00     6.9313007000e+00
         N     8.8299451700e+00     1.7882445400e+00     7.4211690000e-01
         N     9.1727549200e+00     3.5827552400e+00     7.8220630800e+00
         N     1.1544405350e+01     4.4737446300e+00     3.5399731800e+00
         N     6.4582948600e+00     8.9725534000e-01     5.0242068500e+00
         N     7.6932119000e+00     1.8596071800e+00     2.6492108100e+00
         N     1.0309488140e+01     3.5113929600e+00     5.9149691300e+00
         N     1.2681138540e+01     4.5451068700e+00     1.6328791900e+00
         N     5.3215614500e+00     8.2589284000e-01     6.9313007000e+00
         N     4.0866451700e+00     1.7882445400e+00     9.3062969000e+00
         N     4.4294549200e+00     3.5827552400e+00     1.6386243080e+01
         N     6.8011053500e+00     4.4737446300e+00     1.2104153180e+01
         N     1.7149948600e+00     8.9725534000e-01     1.3588386850e+01
         N     2.9499119000e+00     1.8596071800e+00     1.1213390810e+01
         N     5.5661881400e+00     3.5113929600e+00     1.4479149130e+01
         N     7.9378385400e+00     4.5451068700e+00     1.0197059190e+01
         N     5.7826145000e-01     8.2589284000e-01     1.5495480700e+01
         N     8.8299451700e+00     7.1592445400e+00     7.4211690000e-01
         N     9.1727549200e+00     8.9537552400e+00     7.8220630800e+00
         N     1.1544405350e+01     9.8447446300e+00     3.5399731800e+00
         N     6.4582948600e+00     6.2682553400e+00     5.0242068500e+00
         N     7.6932119000e+00     7.2306071800e+00     2.6492108100e+00
         N     1.0309488140e+01     8.8823929600e+00     5.9149691300e+00
         N     1.2681138540e+01     9.9161068700e+00     1.6328791900e+00
         N     5.3215614500e+00     6.1968928400e+00     6.9313007000e+00
         N     4.0866451700e+00     7.1592445400e+00     9.3062969000e+00
         N     4.4294549200e+00     8.9537552400e+00     1.6386243080e+01
         N     6.8011053500e+00     9.8447446300e+00     1.2104153180e+01
         N     1.7149948600e+00     6.2682553400e+00     1.3588386850e+01
         N     2.9499119000e+00     7.2306071800e+00     1.1213390810e+01
         N     5.5661881400e+00     8.8823929600e+00     1.4479149130e+01
         N     7.9378385400e+00     9.9161068700e+00     1.0197059190e+01
         N     5.7826145000e-01     6.1968928400e+00     1.5495480700e+01
         N     1.1668645170e+01     1.7882445400e+00     9.3062969000e+00
         N     1.2011454920e+01     3.5827552400e+00     1.6386243080e+01
         N    -7.8089465000e-01     4.4737446300e+00     1.2104153180e+01
         N     9.2969948600e+00     8.9725534000e-01     1.3588386850e+01
         N     1.0531911900e+01     1.8596071800e+00     1.1213390810e+01
         N     1.3148188140e+01     3.5113929600e+00     1.4479149130e+01
         N     3.5583854000e-01     4.5451068700e+00     1.0197059190e+01
         N     8.1602614500e+00     8.2589284000e-01     1.5495480700e+01
         N     1.1668645170e+01     7.1592445400e+00     9.3062969000e+00
         N     1.2011454920e+01     8.9537552400e+00     1.6386243080e+01
         N    -7.8089465000e-01     9.8447446300e+00     1.2104153180e+01
         N     9.2969948600e+00     6.2682553400e+00     1.3588386850e+01
         N     1.0531911900e+01     7.2306071800e+00     1.1213390810e+01
         N     1.3148188140e+01     8.8823929600e+00     1.4479149130e+01
         N     3.5583854000e-01     9.9161068700e+00     1.0197059190e+01
         N     8.1602614500e+00     6.1968928400e+00     1.5495480700e+01
