384
# CELL(GENH):   15.69220    0.00000   -6.27280    0.00000   12.37600    0.00000    0.67540    0.00000   18.81840 positions{angstrom} cell{angstrom}
         C     1.7822562200e+00     2.5942975800e+00     5.7431300000e-03
         C     8.2786279600e+00     9.7817000400e+00     3.1306400300e+00
         C     2.3094759500e+00     8.7821781700e+00     3.1307029800e+00
         C     7.7514223700e+00     3.5938192200e+00     5.6970200000e-03
         C     2.0843539200e+00     1.4277921000e-01     1.1203804000e-01
         C     7.9765418500e+00     1.2233220790e+01     3.0243710600e+00
         C     2.0075332500e+00     6.3307035200e+00     3.0242218800e+00
         C     8.0533475700e+00     6.0453038800e+00     1.1218645000e-01
         C     3.4942791800e+00     3.4926312000e-01     2.5303856000e-01
         C     6.5666149900e+00     1.2026743500e+01     2.8833638700e+00
         C     5.9759831000e-01     6.5370884800e+00     2.8832488200e+00
         C     9.4632867400e+00     5.8389183200e+00     2.5316402000e-01
         C     3.9770864800e+00     1.6233207300e+00     2.5591104000e-01
         C     6.0838021500e+00     1.0752690090e+01     2.8804758200e+00
         C     1.1466880000e-01     7.8110951900e+00     2.8804065700e+00
         C     9.9462203400e+00     4.5649153200e+00     2.5598942000e-01
         C     1.5597356220e+01     2.5942975800e+00    -3.1306568700e+00
         C     6.4015279600e+00     9.7817000400e+00     6.2670400300e+00
         C     4.3237595000e-01     8.7821781700e+00     6.2671029800e+00
         C     5.8743223700e+00     3.5938192200e+00     3.1420970200e+00
         C     2.0725392000e-01     1.4277921000e-01     3.2484380400e+00
         C     6.0994418500e+00     1.2233220790e+01     6.1607710600e+00
         C     1.5822633250e+01     6.3307035200e+00    -1.1217812000e-01
         C     6.1762475700e+00     6.0453038800e+00     3.2485864500e+00
         C     1.6171791800e+00     3.4926312000e-01     3.3894385600e+00
         C     4.6895149900e+00     1.2026743500e+01     6.0197638700e+00
         C     1.4412698310e+01     6.5370884800e+00    -2.5315118000e-01
         C     7.5861867400e+00     5.8389183200e+00     3.3895640200e+00
         C     2.0999864800e+00     1.6233207300e+00     3.3923110400e+00
         C     4.2067021500e+00     1.0752690090e+01     6.0168758200e+00
         C     1.3929768800e+01     7.8110951900e+00    -2.5599343000e-01
         C     8.0691203400e+00     4.5649153200e+00     3.3923894200e+00
         C     1.3720256220e+01     2.5942975800e+00     5.7431300000e-03
         C     4.5244279600e+00     9.7817000400e+00     9.4034400300e+00
         C     1.4247475950e+01     8.7821781700e+00     3.1307029800e+00
         C     3.9972223700e+00     3.5938192200e+00     6.2784970200e+00
         C     1.4022353920e+01     1.4277921000e-01     1.1203804000e-01
         C     4.2223418500e+00     1.2233220790e+01     9.2971710600e+00
         C     1.3945533250e+01     6.3307035200e+00     3.0242218800e+00
         C     4.2991475700e+00     6.0453038800e+00     6.3849864500e+00
         C     1.5432279180e+01     3.4926312000e-01     2.5303856000e-01
         C     2.8124149900e+00     1.2026743500e+01     9.1561638700e+00
         C     1.2535598310e+01     6.5370884800e+00     2.8832488200e+00
         C     5.7090867400e+00     5.8389183200e+00     6.5259640200e+00
         C     1.5915086480e+01     1.6233207300e+00     2.5591104000e-01
         C     2.3296021500e+00     1.0752690090e+01     9.1532758200e+00
         C     1.2052668800e+01     7.8110951900e+00     2.8804065700e+00
         C     6.1920203400e+00     4.5649153200e+00     6.5287894200e+00
         C     1.1843156220e+01     2.5942975800e+00     3.1421431300e+00
         C     2.6473279600e+00     9.7817000400e+00     1.2539840030e+01
         C     1.2370375950e+01     8.7821781700e+00     6.2671029800e+00
         C     2.1201223700e+00     3.5938192200e+00     9.4148970200e+00
         C     1.2145253920e+01     1.4277921000e-01     3.2484380400e+00
         C     2.3452418500e+00     1.2233220790e+01     1.2433571060e+01
         C     1.2068433250e+01     6.3307035200e+00     6.1606218800e+00
         C     2.4220475700e+00     6.0453038800e+00     9.5213864500e+00
         C     1.3555179180e+01     3.4926312000e-01     3.3894385600e+00
         C     9.3531499000e-01     1.2026743500e+01     1.2292563870e+01
         C     1.0658498310e+01     6.5370884800e+00     6.0196488200e+00
         C     3.8319867400e+00     5.8389183200e+00     9.6623640200e+00
         C     1.4037986480e+01     1.6233207300e+00     3.3923110400e+00
         C     4.5250215000e-01     1.0752690090e+01     1.2289675820e+01
         C     1.0175568800e+01     7.8110951900e+00     6.0168065700e+00
         C     4.3149203400e+00     4.5649153200e+00     9.6651894200e+00
         C     9.9660562200e+00     2.5942975800e+00     6.2785431300e+00
         C     7.7022796000e-01     9.7817000400e+00     1.5676240030e+01
         C     1.0493275950e+01     8.7821781700e+00     9.4035029800e+00
         C     1.5935222370e+01     3.5938192200e+00     6.2784970200e+00
         C     1.0268153920e+01     1.4277921000e-01     6.3848380400e+00
         C     1.6160341850e+01     1.2233220790e+01     9.2971710600e+00
         C     1.0191333250e+01     6.3307035200e+00     9.2970218800e+00
         C     5.4494757000e-01     6.0453038800e+00     1.2657786450e+01
         C     1.1678079180e+01     3.4926312000e-01     6.5258385600e+00
         C     1.4750414990e+01     1.2026743500e+01     9.1561638700e+00
         C     8.7813983100e+00     6.5370884800e+00     9.1560488200e+00
         C     1.9548867400e+00     5.8389183200e+00     1.2798764020e+01
         C     1.2160886480e+01     1.6233207300e+00     6.5287110400e+00
         C     1.4267602150e+01     1.0752690090e+01     9.1532758200e+00
         C     8.2984688000e+00     7.8110951900e+00     9.1532065700e+00
         C     2.4378203400e+00     4.5649153200e+00     1.2801589420e+01
         C     8.0889562200e+00     2.5942975800e+00     9.4149431300e+00
         C     1.4585327960e+01     9.7817000400e+00     1.2539840030e+01
         C     8.6161759500e+00     8.7821781700e+00     1.2539902980e+01
         C     1.4058122370e+01     3.5938192200e+00     9.4148970200e+00
         C     8.3910539200e+00     1.4277921000e-01     9.5212380400e+00
         C     1.4283241850e+01     1.2233220790e+01     1.2433571060e+01
         C     8.3142332500e+00     6.3307035200e+00     1.2433421880e+01
         C     1.4360047570e+01     6.0453038800e+00     9.5213864500e+00
         C     9.8009791800e+00     3.4926312000e-01     9.6622385600e+00
         C     1.2873314990e+01     1.2026743500e+01     1.2292563870e+01
         C     6.9042983100e+00     6.5370884800e+00     1.2292448820e+01
         C     1.5769986740e+01     5.8389183200e+00     9.6623640200e+00
         C     1.0283786480e+01     1.6233207300e+00     9.6651110400e+00
         C     1.2390502150e+01     1.0752690090e+01     1.2289675820e+01
         C     6.4213688000e+00     7.8110951900e+00     1.2289606570e+01
         C     1.6252920340e+01     4.5649153200e+00     9.6651894200e+00
         C     6.2118562200e+00     2.5942975800e+00     1.2551343130e+01
         C     1.2032827960e+01     9.7817000400e+00    -3.1421599700e+00
         C     6.7390759500e+00     8.7821781700e+00     1.5676302980e+01
         C     1.2181022370e+01     3.5938192200e+00     1.2551297020e+01
         C     6.5139539200e+00     1.4277921000e-01     1.2657638040e+01
         C     1.1730741850e+01     1.2233220790e+01    -3.2484289400e+00
         C     6.4371332500e+00     6.3307035200e+00     1.5569821880e+01
         C     1.2482947570e+01     6.0453038800e+00     1.2657786450e+01
         C     7.9238791800e+00     3.4926312000e-01     1.2798638560e+01
         C     1.0320814990e+01     1.2026743500e+01    -3.3894361300e+00
         C     5.0271983100e+00     6.5370884800e+00     1.5428848820e+01
         C     1.3892886740e+01     5.8389183200e+00     1.2798764020e+01
         C     8.4066864800e+00     1.6233207300e+00     1.2801511040e+01
         C     9.8380021500e+00     1.0752690090e+01    -3.3923241800e+00
         C     4.5442688000e+00     7.8110951900e+00     1.5426006570e+01
         C     1.4375820340e+01     4.5649153200e+00     1.2801589420e+01
         C     4.3347562200e+00     2.5942975800e+00     1.5687743130e+01
         C     1.0155727960e+01     9.7817000400e+00    -5.7599700000e-03
         C     4.1865759500e+00     8.7821781700e+00    -5.6970200000e-03
         C     9.6285223700e+00     3.5938192200e+00    -3.1307029800e+00
         C     4.6368539200e+00     1.4277921000e-01     1.5794038040e+01
         C     9.8536418500e+00     1.2233220790e+01    -1.1202894000e-01
         C     3.8846332500e+00     6.3307035200e+00    -1.1217812000e-01
         C     9.9304475700e+00     6.0453038800e+00    -3.0242135500e+00
         C     6.0467791800e+00     3.4926312000e-01     1.5935038560e+01
         C     8.4437149900e+00     1.2026743500e+01    -2.5303613000e-01
         C     2.4746983100e+00     6.5370884800e+00    -2.5315118000e-01
         C     1.1340386740e+01     5.8389183200e+00    -2.8832359800e+00
         C     6.5295864800e+00     1.6233207300e+00     1.5937911040e+01
         C     7.9609021500e+00     1.0752690090e+01    -2.5592418000e-01
         C     1.9917688000e+00     7.8110951900e+00    -2.5599343000e-01
         C     1.1823320340e+01     4.5649153200e+00    -2.8804105800e+00
         H     5.0360150100e+00     1.8608694300e+00     3.4067352000e-01
         H     5.0248717500e+00     1.0515149070e+01     2.7957068400e+00
         H     1.4747934030e+01     8.0485901900e+00    -3.4771269000e+00
         H     1.1005154620e+01     4.3274241400e+00     3.4071883000e-01
         H     3.5580047200e+00     3.6646887800e+00     9.1839890000e-02
         H     6.5028715800e+00     8.7113235200e+00     3.0445412100e+00
         H     5.3370246000e-01     9.8524608900e+00     3.0444893800e+00
         H     9.5271965200e+00     2.5235448700e+00     9.1912020000e-02
         H     1.4094489000e+01     1.1809449100e+00    -3.2136011800e+00
         H     1.1658604680e+01     1.1195041980e+01     7.7211750000e-02
         H     5.6895499500e+00     7.3689342100e+00     7.7221640000e-02
         H     4.3713392300e+00     5.0070605400e+00     3.0591865400e+00
         H     4.1480320600e+00     1.1860437050e+01     3.3011604000e-01
         H     5.9128699700e+00     5.1557388000e-01     2.8062893100e+00
         H     1.5636063470e+01     5.6722168600e+00    -3.4666594500e+00
         H     1.0117018860e+01     6.7037914000e+00     3.3026704000e-01
         H     3.1589150100e+00     1.8608694300e+00     3.4770735200e+00
         H     3.1477717500e+00     1.0515149070e+01     5.9321068400e+00
         H     1.2870834030e+01     8.0485901900e+00    -3.4072690000e-01
         H     9.1280546200e+00     4.3274241400e+00     3.4771188300e+00
         H     1.6809047200e+00     3.6646887800e+00     3.2282398900e+00
         H     4.6257715800e+00     8.7113235200e+00     6.1809412100e+00
         H     1.4348802460e+01     9.8524608900e+00    -9.1910620000e-02
         H     7.6500965200e+00     2.5235448700e+00     3.2283120200e+00
         H     1.2217389000e+01     1.1809449100e+00    -7.7201180000e-02
         H     9.7815046800e+00     1.1195041980e+01     3.2136117500e+00
         H     3.8124499500e+00     7.3689342100e+00     3.2136216400e+00
         H     2.4942392300e+00     5.0070605400e+00     6.1955865400e+00
         H     2.2709320600e+00     1.1860437050e+01     3.4665160400e+00
         H     4.0357699700e+00     5.1557388000e-01     5.9426893100e+00
         H     1.3758963470e+01     5.6722168600e+00    -3.3025945000e-01
         H     8.2399188600e+00     6.7037914000e+00     3.4666670400e+00
         H     1.2818150100e+00     1.8608694300e+00     6.6134735200e+00
         H     1.2706717500e+00     1.0515149070e+01     9.0685068400e+00
         H     1.0993734030e+01     8.0485901900e+00     2.7956731000e+00
         H     7.2509546200e+00     4.3274241400e+00     6.6135188300e+00
         H     1.5496004720e+01     3.6646887800e+00     9.1839890000e-02
         H     2.7486715800e+00     8.7113235200e+00     9.3173412100e+00
         H     1.2471702460e+01     9.8524608900e+00     3.0444893800e+00
         H     5.7729965200e+00     2.5235448700e+00     6.3647120200e+00
         H     1.0340289000e+01     1.1809449100e+00     3.0591988200e+00
         H     7.9044046800e+00     1.1195041980e+01     6.3500117500e+00
         H     1.9353499500e+00     7.3689342100e+00     6.3500216400e+00
         H     6.1713923000e-01     5.0070605400e+00     9.3319865400e+00
         H     3.9383206000e-01     1.1860437050e+01     6.6029160400e+00
         H     2.1586699700e+00     5.1557388000e-01     9.0790893100e+00
         H     1.1881863470e+01     5.6722168600e+00     2.8061405500e+00
         H     6.3628188600e+00     6.7037914000e+00     6.6030670400e+00
         H     1.5096915010e+01     1.8608694300e+00     3.4770735200e+00
         H     1.5085771750e+01     1.0515149070e+01     5.9321068400e+00
         H     9.1166340300e+00     8.0485901900e+00     5.9320731000e+00
         H     5.3738546200e+00     4.3274241400e+00     9.7499188300e+00
         H     1.3618904720e+01     3.6646887800e+00     3.2282398900e+00
         H     8.7157158000e-01     8.7113235200e+00     1.2453741210e+01
         H     1.0594602460e+01     9.8524608900e+00     6.1808893800e+00
         H     3.8958965200e+00     2.5235448700e+00     9.5011120200e+00
         H     8.4631890000e+00     1.1809449100e+00     6.1955988200e+00
         H     6.0273046800e+00     1.1195041980e+01     9.4864117500e+00
         H     1.5750449950e+01     7.3689342100e+00     3.2136216400e+00
         H     1.4432239230e+01     5.0070605400e+00     6.1955865400e+00
         H     1.4208932060e+01     1.1860437050e+01     3.4665160400e+00
         H     1.5973769970e+01     5.1557388000e-01     5.9426893100e+00
         H     1.0004763470e+01     5.6722168600e+00     5.9425405500e+00
         H     4.4857188600e+00     6.7037914000e+00     9.7394670400e+00
         H     1.3219815010e+01     1.8608694300e+00     6.6134735200e+00
         H     1.3208671750e+01     1.0515149070e+01     9.0685068400e+00
         H     7.2395340300e+00     8.0485901900e+00     9.0684731000e+00
         H     3.4967546200e+00     4.3274241400e+00     1.2886318830e+01
         H     1.1741804720e+01     3.6646887800e+00     6.3646398900e+00
         H     1.4686671580e+01     8.7113235200e+00     9.3173412100e+00
         H     8.7175024600e+00     9.8524608900e+00     9.3172893800e+00
         H     2.0187965200e+00     2.5235448700e+00     1.2637512020e+01
         H     6.5860890000e+00     1.1809449100e+00     9.3319988200e+00
         H     4.1502046800e+00     1.1195041980e+01     1.2622811750e+01
         H     1.3873349950e+01     7.3689342100e+00     6.3500216400e+00
         H     1.2555139230e+01     5.0070605400e+00     9.3319865400e+00
         H     1.2331832060e+01     1.1860437050e+01     6.6029160400e+00
         H     1.4096669970e+01     5.1557388000e-01     9.0790893100e+00
         H     8.1276634700e+00     5.6722168600e+00     9.0789405500e+00
         H     2.6086188600e+00     6.7037914000e+00     1.2875867040e+01
         H     1.1342715010e+01     1.8608694300e+00     9.7498735200e+00
         H     1.1331571750e+01     1.0515149070e+01     1.2204906840e+01
         H     5.3624340300e+00     8.0485901900e+00     1.2204873100e+01
         H     1.6196546200e+00     4.3274241400e+00     1.6022718830e+01
         H     9.8647047200e+00     3.6646887800e+00     9.5010398900e+00
         H     1.2809571580e+01     8.7113235200e+00     1.2453741210e+01
         H     6.8404024600e+00     9.8524608900e+00     1.2453689380e+01
         H     1.5833896520e+01     2.5235448700e+00     9.5011120200e+00
         H     4.7089890000e+00     1.1809449100e+00     1.2468398820e+01
         H     2.2731046800e+00     1.1195041980e+01     1.5759211750e+01
         H     1.1996249950e+01     7.3689342100e+00     9.4864216400e+00
         H     1.0678039230e+01     5.0070605400e+00     1.2468386540e+01
         H     1.0454732060e+01     1.1860437050e+01     9.7393160400e+00
         H     1.2219569970e+01     5.1557388000e-01     1.2215489310e+01
         H     6.2505634700e+00     5.6722168600e+00     1.2215340550e+01
         H     7.3151886000e-01     6.7037914000e+00     1.6012267040e+01
         H     9.4656150100e+00     1.8608694300e+00     1.2886273520e+01
         H     8.7790717500e+00     1.0515149070e+01    -3.4770931600e+00
         H     3.4853340300e+00     8.0485901900e+00     1.5341273100e+01
         H     1.5434754620e+01     4.3274241400e+00     1.2886318830e+01
         H     7.9876047200e+00     3.6646887800e+00     1.2637439890e+01
         H     1.0257071580e+01     8.7113235200e+00    -3.2282587900e+00
         H     4.9633024600e+00     9.8524608900e+00     1.5590089380e+01
         H     1.3956796520e+01     2.5235448700e+00     1.2637512020e+01
         H     2.8318890000e+00     1.1809449100e+00     1.5604798820e+01
         H     1.6088204680e+01     1.1195041980e+01     1.2622811750e+01
         H     1.0119149950e+01     7.3689342100e+00     1.2622821640e+01
         H     8.1255392300e+00     5.0070605400e+00    -3.2136134600e+00
         H     8.5776320600e+00     1.1860437050e+01     1.2875716040e+01
         H     9.6670699700e+00     5.1557388000e-01    -3.4665106900e+00
         H     4.3734634700e+00     5.6722168600e+00     1.5351740550e+01
         H     1.4546618860e+01     6.7037914000e+00     1.2875867040e+01
         H     7.5885150100e+00     1.8608694300e+00     1.6022673520e+01
         H     6.9019717500e+00     1.0515149070e+01    -3.4069316000e-01
         H     9.3283403000e-01     8.0485901900e+00    -3.4072690000e-01
         H     1.2882254620e+01     4.3274241400e+00    -2.7956811700e+00
         H     6.1105047200e+00     3.6646887800e+00     1.5773839890e+01
         H     8.3799715800e+00     8.7113235200e+00    -9.1858790000e-02
         H     2.4108024600e+00     9.8524608900e+00    -9.1910620000e-02
         H     1.1404296520e+01     2.5235448700e+00    -3.0444879800e+00
         H     2.7938900000e-01     1.1809449100e+00    -7.7201180000e-02
         H     1.3535704680e+01     1.1195041980e+01    -3.0591882500e+00
         H     8.2420499500e+00     7.3689342100e+00     1.5759221640e+01
         H     6.2484392300e+00     5.0070605400e+00    -7.7213460000e-02
         H     6.7005320600e+00     1.1860437050e+01     1.6012116040e+01
         H     7.7899699700e+00     5.1557388000e-01    -3.3011069000e-01
         H     1.8209634700e+00     5.6722168600e+00    -3.3025945000e-01
         H     1.1994118860e+01     6.7037914000e+00    -2.8061329600e+00
         N     3.1541645400e+00     2.7063610100e+00     1.3227215000e-01
         N     6.9067192800e+00     9.6696445200e+00     3.0041064000e+00
         N     9.3755944000e-01     8.8941527000e+00     3.0040512900e+00
         N     9.1233373200e+00     3.4818532400e+00     1.3234143000e-01
         N     1.3118137000e+00     1.2918305300e+00     6.6672800000e-03
         N     8.7490754900e+00     1.1084164480e+01     3.1297395300e+00
         N     2.7800171600e+00     7.4797571800e+00     3.1297250600e+00
         N     7.2808708200e+00     4.8962376000e+00     6.6800900000e-03
         N     1.2770645400e+00     2.7063610100e+00     3.2686721500e+00
         N     5.0296192800e+00     9.6696445200e+00     6.1405064000e+00
         N     1.4752659440e+01     8.8941527000e+00    -1.3234871000e-01
         N     7.2462373200e+00     3.4818532400e+00     3.2687414300e+00
         N     1.5126913700e+01     1.2918305300e+00    -3.1297327200e+00
         N     6.8719754900e+00     1.1084164480e+01     6.2661395300e+00
         N     9.0291716000e-01     7.4797571800e+00     6.2661250600e+00
         N     5.4037708200e+00     4.8962376000e+00     3.1430800900e+00
         N     1.5092164540e+01     2.7063610100e+00     1.3227215000e-01
         N     3.1525192800e+00     9.6696445200e+00     9.2769064000e+00
         N     1.2875559440e+01     8.8941527000e+00     3.0040512900e+00
         N     5.3691373200e+00     3.4818532400e+00     6.4051414300e+00
         N     1.3249813700e+01     1.2918305300e+00     6.6672800000e-03
         N     4.9948754900e+00     1.1084164480e+01     9.4025395300e+00
         N     1.4718017160e+01     7.4797571800e+00     3.1297250600e+00
         N     3.5266708200e+00     4.8962376000e+00     6.2794800900e+00
         N     1.3215064540e+01     2.7063610100e+00     3.2686721500e+00
         N     1.2754192800e+00     9.6696445200e+00     1.2413306400e+01
         N     1.0998459440e+01     8.8941527000e+00     6.1404512900e+00
         N     3.4920373200e+00     3.4818532400e+00     9.5415414300e+00
         N     1.1372713700e+01     1.2918305300e+00     3.1430672800e+00
         N     3.1177754900e+00     1.1084164480e+01     1.2538939530e+01
         N     1.2840917160e+01     7.4797571800e+00     6.2661250600e+00
         N     1.6495708200e+00     4.8962376000e+00     9.4158800900e+00
         N     1.1337964540e+01     2.7063610100e+00     6.4050721500e+00
         N     1.5090519280e+01     9.6696445200e+00     9.2769064000e+00
         N     9.1213594400e+00     8.8941527000e+00     9.2768512900e+00
         N     1.6149373200e+00     3.4818532400e+00     1.2677941430e+01
         N     9.4956137000e+00     1.2918305300e+00     6.2794672800e+00
         N     1.2406754900e+00     1.1084164480e+01     1.5675339530e+01
         N     1.0963817160e+01     7.4797571800e+00     9.4025250600e+00
         N     1.5464670820e+01     4.8962376000e+00     6.2794800900e+00
         N     9.4608645400e+00     2.7063610100e+00     9.5414721500e+00
         N     1.3213419280e+01     9.6696445200e+00     1.2413306400e+01
         N     7.2442594400e+00     8.8941527000e+00     1.2413251290e+01
         N     1.5430037320e+01     3.4818532400e+00     9.5415414300e+00
         N     7.6185137000e+00     1.2918305300e+00     9.4158672800e+00
         N     1.5055775490e+01     1.1084164480e+01     1.2538939530e+01
         N     9.0867171600e+00     7.4797571800e+00     1.2538925060e+01
         N     1.3587570820e+01     4.8962376000e+00     9.4158800900e+00
         N     7.5837645400e+00     2.7063610100e+00     1.2677872150e+01
         N     1.0660919280e+01     9.6696445200e+00    -3.2686936000e+00
         N     5.3671594400e+00     8.8941527000e+00     1.5549651290e+01
         N     1.3552937320e+01     3.4818532400e+00     1.2677941430e+01
         N     5.7414137000e+00     1.2918305300e+00     1.2552267280e+01
         N     1.2503275490e+01     1.1084164480e+01    -3.1430604700e+00
         N     7.2096171600e+00     7.4797571800e+00     1.5675325060e+01
         N     1.1710470820e+01     4.8962376000e+00     1.2552280090e+01
         N     5.7066645400e+00     2.7063610100e+00     1.5814272150e+01
         N     8.7838192800e+00     9.6696445200e+00    -1.3229360000e-01
         N     2.8146594400e+00     8.8941527000e+00    -1.3234871000e-01
         N     1.1000437320e+01     3.4818532400e+00    -3.0040585700e+00
         N     3.8643137000e+00     1.2918305300e+00     1.5688667280e+01
         N     1.0626175490e+01     1.1084164480e+01    -6.6604700000e-03
         N     4.6571171600e+00     7.4797571800e+00    -6.6749400000e-03
         N     9.1579708200e+00     4.8962376000e+00    -3.1297199100e+00
         O     1.4847303770e+01     3.5666861200e+00    -3.2340175100e+00
         O     1.0905773880e+01     8.8093023600e+00     9.7579080000e-02
         O     4.9365229400e+00     9.7546359800e+00     9.7843500000e-02
         O     5.1243755100e+00     2.6213604500e+00     3.0385584000e+00
         O     1.5119001300e+00     1.1397544410e+01     7.5748340000e-02
         O     8.5489979200e+00     9.7845444000e-01     3.0606765100e+00
         O     2.5800552900e+00     5.2094584000e+00     3.0603001000e+00
         O     7.4808251200e+00     7.1665416100e+00     7.6138230000e-02
         O     1.2970203770e+01     3.5666861200e+00    -9.7617510000e-02
         O     9.0286738800e+00     8.8093023600e+00     3.2339790800e+00
         O     3.0594229400e+00     9.7546359800e+00     3.2342435000e+00
         O     3.2472755100e+00     2.6213604500e+00     6.1749584000e+00
         O     1.5327000130e+01     1.1397544410e+01    -3.0606516600e+00
         O     6.6718979200e+00     9.7845444000e-01     6.1970765100e+00
         O     7.0295529000e-01     5.2094584000e+00     6.1967001000e+00
         O     5.6037251200e+00     7.1665416100e+00     3.2125382300e+00
         O     1.1093103770e+01     3.5666861200e+00     3.0387824900e+00
         O     7.1515738800e+00     8.8093023600e+00     6.3703790800e+00
         O     1.1823229400e+00     9.7546359800e+00     6.3706435000e+00
         O     1.3701755100e+00     2.6213604500e+00     9.3113584000e+00
         O     1.3449900130e+01     1.1397544410e+01     7.5748340000e-02
         O     4.7947979200e+00     9.7845444000e-01     9.3334765100e+00
         O     1.4518055290e+01     5.2094584000e+00     3.0603001000e+00
         O     3.7266251200e+00     7.1665416100e+00     6.3489382300e+00
         O     9.2160037700e+00     3.5666861200e+00     6.1751824900e+00
         O     5.2744738800e+00     8.8093023600e+00     9.5067790800e+00
         O     1.4997422940e+01     9.7546359800e+00     3.2342435000e+00
         O     1.5185275510e+01     2.6213604500e+00     6.1749584000e+00
         O     1.1572800130e+01     1.1397544410e+01     3.2121483400e+00
         O     2.9176979200e+00     9.7845444000e-01     1.2469876510e+01
         O     1.2640955290e+01     5.2094584000e+00     6.1967001000e+00
         O     1.8495251200e+00     7.1665416100e+00     9.4853382300e+00
         O     7.3389037700e+00     3.5666861200e+00     9.3115824900e+00
         O     3.3973738800e+00     8.8093023600e+00     1.2643179080e+01
         O     1.3120322940e+01     9.7546359800e+00     6.3706435000e+00
         O     1.3308175510e+01     2.6213604500e+00     9.3113584000e+00
         O     9.6957001300e+00     1.1397544410e+01     6.3485483400e+00
         O     1.0405979200e+00     9.7845444000e-01     1.5606276510e+01
         O     1.0763855290e+01     5.2094584000e+00     9.3331001000e+00
         O     1.5664625120e+01     7.1665416100e+00     6.3489382300e+00
         O     5.4618037700e+00     3.5666861200e+00     1.2447982490e+01
         O     1.5202738800e+00     8.8093023600e+00     1.5779579080e+01
         O     1.1243222940e+01     9.7546359800e+00     9.5070435000e+00
         O     1.1431075510e+01     2.6213604500e+00     1.2447758400e+01
         O     7.8186001300e+00     1.1397544410e+01     9.4849483400e+00
         O     1.4855697920e+01     9.7845444000e-01     1.2469876510e+01
         O     8.8867552900e+00     5.2094584000e+00     1.2469500100e+01
         O     1.3787525120e+01     7.1665416100e+00     9.4853382300e+00
         O     3.5847037700e+00     3.5666861200e+00     1.5584382490e+01
         O     1.5335373880e+01     8.8093023600e+00     1.2643179080e+01
         O     9.3661229400e+00     9.7546359800e+00     1.2643443500e+01
         O     8.8785755100e+00     2.6213604500e+00    -3.2342416000e+00
         O     5.9415001300e+00     1.1397544410e+01     1.2621348340e+01
         O     1.2303197920e+01     9.7845444000e-01    -3.2121234900e+00
         O     7.0096552900e+00     5.2094584000e+00     1.5605900100e+01
         O     1.1910425120e+01     7.1665416100e+00     1.2621738230e+01
         O     1.0322037700e+00     3.5666861200e+00    -9.7617510000e-02
         O     1.2782873880e+01     8.8093023600e+00    -3.0388209200e+00
         O     7.4890229400e+00     9.7546359800e+00     1.5779843500e+01
         O     7.0014755100e+00     2.6213604500e+00    -9.7841600000e-02
         O     4.0644001300e+00     1.1397544410e+01     1.5757748340e+01
         O     1.0426097920e+01     9.7845444000e-01    -7.5723490000e-02
         O     4.4571552900e+00     5.2094584000e+00    -7.6099900000e-02
         O     9.3579251200e+00     7.1665416100e+00    -3.0602617700e+00
