448
# CELL(GENH):   10.93178    0.00000   -0.01293    0.00000   17.48046    0.00000   -0.58459    0.00000   20.42278 positions{angstrom} cell{angstrom}
         C     3.0811980000e-01     8.1494655500e+00     4.9473159400e+00
         C     5.0117198000e+00     5.9066555000e-01     1.5191594000e-01
         C     3.8111980000e-01     4.9607655500e+00     2.3945159400e+00
         C     4.9386198000e+00     3.7793655500e+00     2.7048159400e+00
         C     1.3235198000e+00     8.4467655500e+00     3.8714159400e+00
         C     3.9963198000e+00     2.9346555000e-01     1.2278159400e+00
         C     1.3965198000e+00     4.6635655500e+00     1.3185159400e+00
         C     3.9232198000e+00     4.0766655500e+00     3.7807159400e+00
         C     1.6197130000e-01     8.1494655500e+00     1.0053012140e+01
         C     4.8655713000e+00     5.9066555000e-01     5.2576121400e+00
         C     2.3497130000e-01     4.9607655500e+00     7.5002121400e+00
         C     4.7924713000e+00     3.7793655500e+00     7.8105121400e+00
         C     1.1773713000e+00     8.4467655500e+00     8.9771121400e+00
         C     3.8501713000e+00     2.9346555000e-01     6.3335121400e+00
         C     1.2503713000e+00     4.6635655500e+00     6.4242121400e+00
         C     3.7770713000e+00     4.0766655500e+00     8.8864121400e+00
         C     5.7740079000e+00     8.1494655500e+00     4.9408517400e+00
         C     1.0477607900e+01     5.9066555000e-01     1.4545174000e-01
         C     5.8470079000e+00     4.9607655500e+00     2.3880517400e+00
         C     1.0404507900e+01     3.7793655500e+00     2.6983517400e+00
         C     6.7894079000e+00     8.4467655500e+00     3.8649517400e+00
         C     9.4622079000e+00     2.9346555000e-01     1.2213517400e+00
         C     6.8624079000e+00     4.6635655500e+00     1.3120517400e+00
         C     9.3891079000e+00     4.0766655500e+00     3.7742517400e+00
         C     5.6278594000e+00     8.1494655500e+00     1.0046547940e+01
         C     1.0331459400e+01     5.9066555000e-01     5.2511479400e+00
         C     5.7008594000e+00     4.9607655500e+00     7.4937479400e+00
         C     1.0258359400e+01     3.7793655500e+00     7.8040479400e+00
         C     6.6432594000e+00     8.4467655500e+00     8.9706479400e+00
         C     9.3160594000e+00     2.9346555000e-01     6.3270479400e+00
         C     6.7162594000e+00     4.6635655500e+00     6.4177479400e+00
         C     9.2429594000e+00     4.0766655500e+00     8.8799479400e+00
         C     1.5822800000e-02     8.1494655500e+00     1.5158708340e+01
         C     4.7194228000e+00     5.9066555000e-01     1.0363308340e+01
         C     8.8822800000e-02     4.9607655500e+00     1.2605908340e+01
         C     4.6463228000e+00     3.7793655500e+00     1.2916208340e+01
         C     1.0312228000e+00     8.4467655500e+00     1.4082808340e+01
         C     3.7040228000e+00     2.9346555000e-01     1.1439208340e+01
         C     1.1042228000e+00     4.6635655500e+00     1.1529908340e+01
         C     3.6309228000e+00     4.0766655500e+00     1.3992108340e+01
         C    -1.3032570000e-01     8.1494655500e+00     2.0264404540e+01
         C     4.5732743000e+00     5.9066555000e-01     1.5469004540e+01
         C    -5.7325700000e-02     4.9607655500e+00     1.7711604540e+01
         C     4.5001743000e+00     3.7793655500e+00     1.8021904540e+01
         C     8.8507430000e-01     8.4467655500e+00     1.9188504540e+01
         C     3.5578743000e+00     2.9346555000e-01     1.6544904540e+01
         C     9.5807430000e-01     4.6635655500e+00     1.6635604540e+01
         C     3.4847743000e+00     4.0766655500e+00     1.9097804540e+01
         C     5.4817109000e+00     8.1494655500e+00     1.5152244140e+01
         C     1.0185310900e+01     5.9066555000e-01     1.0356844140e+01
         C     5.5547109000e+00     4.9607655500e+00     1.2599444140e+01
         C     1.0112210900e+01     3.7793655500e+00     1.2909744140e+01
         C     6.4971109000e+00     8.4467655500e+00     1.4076344140e+01
         C     9.1699109000e+00     2.9346555000e-01     1.1432744140e+01
         C     6.5701109000e+00     4.6635655500e+00     1.1523444140e+01
         C     9.0968109000e+00     4.0766655500e+00     1.3985644140e+01
         C     5.3355624000e+00     8.1494655500e+00     2.0257940340e+01
         C     1.0039162400e+01     5.9066555000e-01     1.5462540340e+01
         C     5.4085624000e+00     4.9607655500e+00     1.7705140340e+01
         C     9.9660624000e+00     3.7793655500e+00     1.8015440340e+01
         C     6.3509624000e+00     8.4467655500e+00     1.9182040340e+01
         C     9.0237624000e+00     2.9346555000e-01     1.6538440340e+01
         C     6.4239624000e+00     4.6635655500e+00     1.6629140340e+01
         C     8.9506624000e+00     4.0766655500e+00     1.9091340340e+01
         C     3.0811980000e-01     1.6889696650e+01     4.9473159400e+00
         C     5.0117198000e+00     9.3308966500e+00     1.5191594000e-01
         C     3.8111980000e-01     1.3700996650e+01     2.3945159400e+00
         C     4.9386198000e+00     1.2519596650e+01     2.7048159400e+00
         C     1.3235198000e+00     1.7186996650e+01     3.8714159400e+00
         C     3.9963198000e+00     9.0336966500e+00     1.2278159400e+00
         C     1.3965198000e+00     1.3403796650e+01     1.3185159400e+00
         C     3.9232198000e+00     1.2816896650e+01     3.7807159400e+00
         C     1.6197130000e-01     1.6889696650e+01     1.0053012140e+01
         C     4.8655713000e+00     9.3308966500e+00     5.2576121400e+00
         C     2.3497130000e-01     1.3700996650e+01     7.5002121400e+00
         C     4.7924713000e+00     1.2519596650e+01     7.8105121400e+00
         C     1.1773713000e+00     1.7186996650e+01     8.9771121400e+00
         C     3.8501713000e+00     9.0336966500e+00     6.3335121400e+00
         C     1.2503713000e+00     1.3403796650e+01     6.4242121400e+00
         C     3.7770713000e+00     1.2816896650e+01     8.8864121400e+00
         C     5.7740079000e+00     1.6889696650e+01     4.9408517400e+00
         C     1.0477607900e+01     9.3308966500e+00     1.4545174000e-01
         C     5.8470079000e+00     1.3700996650e+01     2.3880517400e+00
         C     1.0404507900e+01     1.2519596650e+01     2.6983517400e+00
         C     6.7894079000e+00     1.7186996650e+01     3.8649517400e+00
         C     9.4622079000e+00     9.0336966500e+00     1.2213517400e+00
         C     6.8624079000e+00     1.3403796650e+01     1.3120517400e+00
         C     9.3891079000e+00     1.2816896650e+01     3.7742517400e+00
         C     5.6278594000e+00     1.6889696650e+01     1.0046547940e+01
         C     1.0331459400e+01     9.3308966500e+00     5.2511479400e+00
         C     5.7008594000e+00     1.3700996650e+01     7.4937479400e+00
         C     1.0258359400e+01     1.2519596650e+01     7.8040479400e+00
         C     6.6432594000e+00     1.7186996650e+01     8.9706479400e+00
         C     9.3160594000e+00     9.0336966500e+00     6.3270479400e+00
         C     6.7162594000e+00     1.3403796650e+01     6.4177479400e+00
         C     9.2429594000e+00     1.2816896650e+01     8.8799479400e+00
         C     1.5822800000e-02     1.6889696650e+01     1.5158708340e+01
         C     4.7194228000e+00     9.3308966500e+00     1.0363308340e+01
         C     8.8822800000e-02     1.3700996650e+01     1.2605908340e+01
         C     4.6463228000e+00     1.2519596650e+01     1.2916208340e+01
         C     1.0312228000e+00     1.7186996650e+01     1.4082808340e+01
         C     3.7040228000e+00     9.0336966500e+00     1.1439208340e+01
         C     1.1042228000e+00     1.3403796650e+01     1.1529908340e+01
         C     3.6309228000e+00     1.2816896650e+01     1.3992108340e+01
         C    -1.3032570000e-01     1.6889696650e+01     2.0264404540e+01
         C     4.5732743000e+00     9.3308966500e+00     1.5469004540e+01
         C    -5.7325700000e-02     1.3700996650e+01     1.7711604540e+01
         C     4.5001743000e+00     1.2519596650e+01     1.8021904540e+01
         C     8.8507430000e-01     1.7186996650e+01     1.9188504540e+01
         C     3.5578743000e+00     9.0336966500e+00     1.6544904540e+01
         C     9.5807430000e-01     1.3403796650e+01     1.6635604540e+01
         C     3.4847743000e+00     1.2816896650e+01     1.9097804540e+01
         C     5.4817109000e+00     1.6889696650e+01     1.5152244140e+01
         C     1.0185310900e+01     9.3308966500e+00     1.0356844140e+01
         C     5.5547109000e+00     1.3700996650e+01     1.2599444140e+01
         C     1.0112210900e+01     1.2519596650e+01     1.2909744140e+01
         C     6.4971109000e+00     1.7186996650e+01     1.4076344140e+01
         C     9.1699109000e+00     9.0336966500e+00     1.1432744140e+01
         C     6.5701109000e+00     1.3403796650e+01     1.1523444140e+01
         C     9.0968109000e+00     1.2816896650e+01     1.3985644140e+01
         C     5.3355624000e+00     1.6889696650e+01     2.0257940340e+01
         C     1.0039162400e+01     9.3308966500e+00     1.5462540340e+01
         C     5.4085624000e+00     1.3700996650e+01     1.7705140340e+01
         C     9.9660624000e+00     1.2519596650e+01     1.8015440340e+01
         C     6.3509624000e+00     1.7186996650e+01     1.9182040340e+01
         C     9.0237624000e+00     9.0336966500e+00     1.6538440340e+01
         C     6.4239624000e+00     1.3403796650e+01     1.6629140340e+01
         C     8.9506624000e+00     1.2816896650e+01     1.9091340340e+01
         H     5.1888198000e+00     7.2771655500e+00     4.6038159400e+00
         H     1.3091980000e-01     1.4629655500e+00     4.9551594000e-01
         H     5.2619198000e+00     5.8331655500e+00     2.0509159400e+00
         H     5.7819800000e-02     2.9070655500e+00     3.0483159400e+00
         H     9.9921980000e-01     7.8017655500e+00     7.2891594000e-01
         H     4.3206198000e+00     9.3846555000e-01     4.3703159400e+00
         H     9.2611980000e-01     5.3085655500e+00     3.2818159400e+00
         H     4.3936198000e+00     3.4316655500e+00     1.8175159400e+00
         H     2.9177198000e+00     7.7299655500e+00     3.0256159400e+00
         H     2.4020198000e+00     1.0101655500e+00     2.0737159400e+00
         H     2.9908198000e+00     5.3802655500e+00     4.7271594000e-01
         H     2.3290198000e+00     3.3598655500e+00     4.6265159400e+00
         H     5.0426713000e+00     7.2771655500e+00     9.7095121400e+00
         H    -1.5228700000e-02     1.4629655500e+00     5.6012121400e+00
         H     5.1157713000e+00     5.8331655500e+00     7.1566121400e+00
         H    -8.8328700000e-02     2.9070655500e+00     8.1540121400e+00
         H     8.5307130000e-01     7.8017655500e+00     5.8346121400e+00
         H     4.1744713000e+00     9.3846555000e-01     9.4760121400e+00
         H     7.7997130000e-01     5.3085655500e+00     8.3875121400e+00
         H     4.2474713000e+00     3.4316655500e+00     6.9232121400e+00
         H     2.7715713000e+00     7.7299655500e+00     8.1313121400e+00
         H     2.2558713000e+00     1.0101655500e+00     7.1794121400e+00
         H     2.8446713000e+00     5.3802655500e+00     5.5784121400e+00
         H     2.1828713000e+00     3.3598655500e+00     9.7322121400e+00
         H     1.0654707900e+01     7.2771655500e+00     4.5973517400e+00
         H     5.5968079000e+00     1.4629655500e+00     4.8905174000e-01
         H     1.0727807900e+01     5.8331655500e+00     2.0444517400e+00
         H     5.5237079000e+00     2.9070655500e+00     3.0418517400e+00
         H     6.4651079000e+00     7.8017655500e+00     7.2245174000e-01
         H     9.7865079000e+00     9.3846555000e-01     4.3638517400e+00
         H     6.3920079000e+00     5.3085655500e+00     3.2753517400e+00
         H     9.8595079000e+00     3.4316655500e+00     1.8110517400e+00
         H     8.3836079000e+00     7.7299655500e+00     3.0191517400e+00
         H     7.8679079000e+00     1.0101655500e+00     2.0672517400e+00
         H     8.4567079000e+00     5.3802655500e+00     4.6625174000e-01
         H     7.7949079000e+00     3.3598655500e+00     4.6200517400e+00
         H     1.0508559400e+01     7.2771655500e+00     9.7030479400e+00
         H     5.4506594000e+00     1.4629655500e+00     5.5947479400e+00
         H     1.0581659400e+01     5.8331655500e+00     7.1501479400e+00
         H     5.3775594000e+00     2.9070655500e+00     8.1475479400e+00
         H     6.3189594000e+00     7.8017655500e+00     5.8281479400e+00
         H     9.6403594000e+00     9.3846555000e-01     9.4695479400e+00
         H     6.2458594000e+00     5.3085655500e+00     8.3810479400e+00
         H     9.7133594000e+00     3.4316655500e+00     6.9167479400e+00
         H     8.2374594000e+00     7.7299655500e+00     8.1248479400e+00
         H     7.7217594000e+00     1.0101655500e+00     7.1729479400e+00
         H     8.3105594000e+00     5.3802655500e+00     5.5719479400e+00
         H     7.6487594000e+00     3.3598655500e+00     9.7257479400e+00
         H     4.8965228000e+00     7.2771655500e+00     1.4815208340e+01
         H    -1.6137720000e-01     1.4629655500e+00     1.0706908340e+01
         H     4.9696228000e+00     5.8331655500e+00     1.2262308340e+01
         H    -2.3447720000e-01     2.9070655500e+00     1.3259708340e+01
         H     7.0692280000e-01     7.8017655500e+00     1.0940308340e+01
         H     4.0283228000e+00     9.3846555000e-01     1.4581708340e+01
         H     6.3382280000e-01     5.3085655500e+00     1.3493208340e+01
         H     4.1013228000e+00     3.4316655500e+00     1.2028908340e+01
         H     2.6254228000e+00     7.7299655500e+00     1.3237008340e+01
         H     2.1097228000e+00     1.0101655500e+00     1.2285108340e+01
         H     2.6985228000e+00     5.3802655500e+00     1.0684108340e+01
         H     2.0367228000e+00     3.3598655500e+00     1.4837908340e+01
         H     4.7503743000e+00     7.2771655500e+00     1.9920904540e+01
         H    -3.0752570000e-01     1.4629655500e+00     1.5812604540e+01
         H     4.8234743000e+00     5.8331655500e+00     1.7368004540e+01
         H    -3.8062570000e-01     2.9070655500e+00     1.8365404540e+01
         H     5.6077430000e-01     7.8017655500e+00     1.6046004540e+01
         H     3.8821743000e+00     9.3846555000e-01     1.9687404540e+01
         H     4.8767430000e-01     5.3085655500e+00     1.8598904540e+01
         H     3.9551743000e+00     3.4316655500e+00     1.7134604540e+01
         H     2.4792743000e+00     7.7299655500e+00     1.8342704540e+01
         H     1.9635743000e+00     1.0101655500e+00     1.7390804540e+01
         H     2.5523743000e+00     5.3802655500e+00     1.5789804540e+01
         H     1.8905743000e+00     3.3598655500e+00     1.9943604540e+01
         H     1.0362410900e+01     7.2771655500e+00     1.4808744140e+01
         H     5.3045109000e+00     1.4629655500e+00     1.0700444140e+01
         H     1.0435510900e+01     5.8331655500e+00     1.2255844140e+01
         H     5.2314109000e+00     2.9070655500e+00     1.3253244140e+01
         H     6.1728109000e+00     7.8017655500e+00     1.0933844140e+01
         H     9.4942109000e+00     9.3846555000e-01     1.4575244140e+01
         H     6.0997109000e+00     5.3085655500e+00     1.3486744140e+01
         H     9.5672109000e+00     3.4316655500e+00     1.2022444140e+01
         H     8.0913109000e+00     7.7299655500e+00     1.3230544140e+01
         H     7.5756109000e+00     1.0101655500e+00     1.2278644140e+01
         H     8.1644109000e+00     5.3802655500e+00     1.0677644140e+01
         H     7.5026109000e+00     3.3598655500e+00     1.4831444140e+01
         H     1.0216262400e+01     7.2771655500e+00     1.9914440340e+01
         H     5.1583624000e+00     1.4629655500e+00     1.5806140340e+01
         H     1.0289362400e+01     5.8331655500e+00     1.7361540340e+01
         H     5.0852624000e+00     2.9070655500e+00     1.8358940340e+01
         H     6.0266624000e+00     7.8017655500e+00     1.6039540340e+01
         H     9.3480624000e+00     9.3846555000e-01     1.9680940340e+01
         H     5.9535624000e+00     5.3085655500e+00     1.8592440340e+01
         H     9.4210624000e+00     3.4316655500e+00     1.7128140340e+01
         H     7.9451624000e+00     7.7299655500e+00     1.8336240340e+01
         H     7.4294624000e+00     1.0101655500e+00     1.7384340340e+01
         H     8.0182624000e+00     5.3802655500e+00     1.5783340340e+01
         H     7.3564624000e+00     3.3598655500e+00     1.9937140340e+01
         H     5.1888198000e+00     1.6017396650e+01     4.6038159400e+00
         H     1.3091980000e-01     1.0203196650e+01     4.9551594000e-01
         H     5.2619198000e+00     1.4573396650e+01     2.0509159400e+00
         H     5.7819800000e-02     1.1647296650e+01     3.0483159400e+00
         H     9.9921980000e-01     1.6541996650e+01     7.2891594000e-01
         H     4.3206198000e+00     9.6786966500e+00     4.3703159400e+00
         H     9.2611980000e-01     1.4048796650e+01     3.2818159400e+00
         H     4.3936198000e+00     1.2171896650e+01     1.8175159400e+00
         H     2.9177198000e+00     1.6470196650e+01     3.0256159400e+00
         H     2.4020198000e+00     9.7503966500e+00     2.0737159400e+00
         H     2.9908198000e+00     1.4120496650e+01     4.7271594000e-01
         H     2.3290198000e+00     1.2100096650e+01     4.6265159400e+00
         H     5.0426713000e+00     1.6017396650e+01     9.7095121400e+00
         H    -1.5228700000e-02     1.0203196650e+01     5.6012121400e+00
         H     5.1157713000e+00     1.4573396650e+01     7.1566121400e+00
         H    -8.8328700000e-02     1.1647296650e+01     8.1540121400e+00
         H     8.5307130000e-01     1.6541996650e+01     5.8346121400e+00
         H     4.1744713000e+00     9.6786966500e+00     9.4760121400e+00
         H     7.7997130000e-01     1.4048796650e+01     8.3875121400e+00
         H     4.2474713000e+00     1.2171896650e+01     6.9232121400e+00
         H     2.7715713000e+00     1.6470196650e+01     8.1313121400e+00
         H     2.2558713000e+00     9.7503966500e+00     7.1794121400e+00
         H     2.8446713000e+00     1.4120496650e+01     5.5784121400e+00
         H     2.1828713000e+00     1.2100096650e+01     9.7322121400e+00
         H     1.0654707900e+01     1.6017396650e+01     4.5973517400e+00
         H     5.5968079000e+00     1.0203196650e+01     4.8905174000e-01
         H     1.0727807900e+01     1.4573396650e+01     2.0444517400e+00
         H     5.5237079000e+00     1.1647296650e+01     3.0418517400e+00
         H     6.4651079000e+00     1.6541996650e+01     7.2245174000e-01
         H     9.7865079000e+00     9.6786966500e+00     4.3638517400e+00
         H     6.3920079000e+00     1.4048796650e+01     3.2753517400e+00
         H     9.8595079000e+00     1.2171896650e+01     1.8110517400e+00
         H     8.3836079000e+00     1.6470196650e+01     3.0191517400e+00
         H     7.8679079000e+00     9.7503966500e+00     2.0672517400e+00
         H     8.4567079000e+00     1.4120496650e+01     4.6625174000e-01
         H     7.7949079000e+00     1.2100096650e+01     4.6200517400e+00
         H     1.0508559400e+01     1.6017396650e+01     9.7030479400e+00
         H     5.4506594000e+00     1.0203196650e+01     5.5947479400e+00
         H     1.0581659400e+01     1.4573396650e+01     7.1501479400e+00
         H     5.3775594000e+00     1.1647296650e+01     8.1475479400e+00
         H     6.3189594000e+00     1.6541996650e+01     5.8281479400e+00
         H     9.6403594000e+00     9.6786966500e+00     9.4695479400e+00
         H     6.2458594000e+00     1.4048796650e+01     8.3810479400e+00
         H     9.7133594000e+00     1.2171896650e+01     6.9167479400e+00
         H     8.2374594000e+00     1.6470196650e+01     8.1248479400e+00
         H     7.7217594000e+00     9.7503966500e+00     7.1729479400e+00
         H     8.3105594000e+00     1.4120496650e+01     5.5719479400e+00
         H     7.6487594000e+00     1.2100096650e+01     9.7257479400e+00
         H     4.8965228000e+00     1.6017396650e+01     1.4815208340e+01
         H    -1.6137720000e-01     1.0203196650e+01     1.0706908340e+01
         H     4.9696228000e+00     1.4573396650e+01     1.2262308340e+01
         H    -2.3447720000e-01     1.1647296650e+01     1.3259708340e+01
         H     7.0692280000e-01     1.6541996650e+01     1.0940308340e+01
         H     4.0283228000e+00     9.6786966500e+00     1.4581708340e+01
         H     6.3382280000e-01     1.4048796650e+01     1.3493208340e+01
         H     4.1013228000e+00     1.2171896650e+01     1.2028908340e+01
         H     2.6254228000e+00     1.6470196650e+01     1.3237008340e+01
         H     2.1097228000e+00     9.7503966500e+00     1.2285108340e+01
         H     2.6985228000e+00     1.4120496650e+01     1.0684108340e+01
         H     2.0367228000e+00     1.2100096650e+01     1.4837908340e+01
         H     4.7503743000e+00     1.6017396650e+01     1.9920904540e+01
         H    -3.0752570000e-01     1.0203196650e+01     1.5812604540e+01
         H     4.8234743000e+00     1.4573396650e+01     1.7368004540e+01
         H    -3.8062570000e-01     1.1647296650e+01     1.8365404540e+01
         H     5.6077430000e-01     1.6541996650e+01     1.6046004540e+01
         H     3.8821743000e+00     9.6786966500e+00     1.9687404540e+01
         H     4.8767430000e-01     1.4048796650e+01     1.8598904540e+01
         H     3.9551743000e+00     1.2171896650e+01     1.7134604540e+01
         H     2.4792743000e+00     1.6470196650e+01     1.8342704540e+01
         H     1.9635743000e+00     9.7503966500e+00     1.7390804540e+01
         H     2.5523743000e+00     1.4120496650e+01     1.5789804540e+01
         H     1.8905743000e+00     1.2100096650e+01     1.9943604540e+01
         H     1.0362410900e+01     1.6017396650e+01     1.4808744140e+01
         H     5.3045109000e+00     1.0203196650e+01     1.0700444140e+01
         H     1.0435510900e+01     1.4573396650e+01     1.2255844140e+01
         H     5.2314109000e+00     1.1647296650e+01     1.3253244140e+01
         H     6.1728109000e+00     1.6541996650e+01     1.0933844140e+01
         H     9.4942109000e+00     9.6786966500e+00     1.4575244140e+01
         H     6.0997109000e+00     1.4048796650e+01     1.3486744140e+01
         H     9.5672109000e+00     1.2171896650e+01     1.2022444140e+01
         H     8.0913109000e+00     1.6470196650e+01     1.3230544140e+01
         H     7.5756109000e+00     9.7503966500e+00     1.2278644140e+01
         H     8.1644109000e+00     1.4120496650e+01     1.0677644140e+01
         H     7.5026109000e+00     1.2100096650e+01     1.4831444140e+01
         H     1.0216262400e+01     1.6017396650e+01     1.9914440340e+01
         H     5.1583624000e+00     1.0203196650e+01     1.5806140340e+01
         H     1.0289362400e+01     1.4573396650e+01     1.7361540340e+01
         H     5.0852624000e+00     1.1647296650e+01     1.8358940340e+01
         H     6.0266624000e+00     1.6541996650e+01     1.6039540340e+01
         H     9.3480624000e+00     9.6786966500e+00     1.9680940340e+01
         H     5.9535624000e+00     1.4048796650e+01     1.8592440340e+01
         H     9.4210624000e+00     1.2171896650e+01     1.7128140340e+01
         H     7.9451624000e+00     1.6470196650e+01     1.8336240340e+01
         H     7.4294624000e+00     9.7503966500e+00     1.7384340340e+01
         H     8.0182624000e+00     1.4120496650e+01     1.5783340340e+01
         H     7.3564624000e+00     1.2100096650e+01     1.9937140340e+01
         O     1.2795198000e+00     7.0906555000e-01     3.1444159400e+00
         O     4.0403198000e+00     8.0310655500e+00     1.9548159400e+00
         O     1.3526198000e+00     3.6609655500e+00     5.9161594000e-01
         O     3.9672198000e+00     5.0791655500e+00     4.5077159400e+00
         O     2.2588198000e+00     7.5192655500e+00     3.7784159400e+00
         O     3.0609198000e+00     1.2208655500e+00     1.3208159400e+00
         O     2.3319198000e+00     5.5909655500e+00     1.2255159400e+00
         O     2.9878198000e+00     3.1491655500e+00     3.8737159400e+00
         O     1.1333713000e+00     7.0906555000e-01     8.2501121400e+00
         O     3.8941713000e+00     8.0310655500e+00     7.0605121400e+00
         O     1.2064713000e+00     3.6609655500e+00     5.6973121400e+00
         O     3.8210713000e+00     5.0791655500e+00     9.6134121400e+00
         O     2.1126713000e+00     7.5192655500e+00     8.8841121400e+00
         O     2.9147713000e+00     1.2208655500e+00     6.4265121400e+00
         O     2.1857713000e+00     5.5909655500e+00     6.3312121400e+00
         O     2.8416713000e+00     3.1491655500e+00     8.9794121400e+00
         O     6.7454079000e+00     7.0906555000e-01     3.1379517400e+00
         O     9.5062079000e+00     8.0310655500e+00     1.9483517400e+00
         O     6.8185079000e+00     3.6609655500e+00     5.8515174000e-01
         O     9.4331079000e+00     5.0791655500e+00     4.5012517400e+00
         O     7.7247079000e+00     7.5192655500e+00     3.7719517400e+00
         O     8.5268079000e+00     1.2208655500e+00     1.3143517400e+00
         O     7.7978079000e+00     5.5909655500e+00     1.2190517400e+00
         O     8.4537079000e+00     3.1491655500e+00     3.8672517400e+00
         O     6.5992594000e+00     7.0906555000e-01     8.2436479400e+00
         O     9.3600594000e+00     8.0310655500e+00     7.0540479400e+00
         O     6.6723594000e+00     3.6609655500e+00     5.6908479400e+00
         O     9.2869594000e+00     5.0791655500e+00     9.6069479400e+00
         O     7.5785594000e+00     7.5192655500e+00     8.8776479400e+00
         O     8.3806594000e+00     1.2208655500e+00     6.4200479400e+00
         O     7.6516594000e+00     5.5909655500e+00     6.3247479400e+00
         O     8.3075594000e+00     3.1491655500e+00     8.9729479400e+00
         O     9.8722280000e-01     7.0906555000e-01     1.3355808340e+01
         O     3.7480228000e+00     8.0310655500e+00     1.2166208340e+01
         O     1.0603228000e+00     3.6609655500e+00     1.0803008340e+01
         O     3.6749228000e+00     5.0791655500e+00     1.4719108340e+01
         O     1.9665228000e+00     7.5192655500e+00     1.3989808340e+01
         O     2.7686228000e+00     1.2208655500e+00     1.1532208340e+01
         O     2.0396228000e+00     5.5909655500e+00     1.1436908340e+01
         O     2.6955228000e+00     3.1491655500e+00     1.4085108340e+01
         O     8.4107430000e-01     7.0906555000e-01     1.8461504540e+01
         O     3.6018743000e+00     8.0310655500e+00     1.7271904540e+01
         O     9.1417430000e-01     3.6609655500e+00     1.5908704540e+01
         O     3.5287743000e+00     5.0791655500e+00     1.9824804540e+01
         O     1.8203743000e+00     7.5192655500e+00     1.9095504540e+01
         O     2.6224743000e+00     1.2208655500e+00     1.6637904540e+01
         O     1.8934743000e+00     5.5909655500e+00     1.6542604540e+01
         O     2.5493743000e+00     3.1491655500e+00     1.9190804540e+01
         O     6.4531109000e+00     7.0906555000e-01     1.3349344140e+01
         O     9.2139109000e+00     8.0310655500e+00     1.2159744140e+01
         O     6.5262109000e+00     3.6609655500e+00     1.0796544140e+01
         O     9.1408109000e+00     5.0791655500e+00     1.4712644140e+01
         O     7.4324109000e+00     7.5192655500e+00     1.3983344140e+01
         O     8.2345109000e+00     1.2208655500e+00     1.1525744140e+01
         O     7.5055109000e+00     5.5909655500e+00     1.1430444140e+01
         O     8.1614109000e+00     3.1491655500e+00     1.4078644140e+01
         O     6.3069624000e+00     7.0906555000e-01     1.8455040340e+01
         O     9.0677624000e+00     8.0310655500e+00     1.7265440340e+01
         O     6.3800624000e+00     3.6609655500e+00     1.5902240340e+01
         O     8.9946624000e+00     5.0791655500e+00     1.9818340340e+01
         O     7.2862624000e+00     7.5192655500e+00     1.9089040340e+01
         O     8.0883624000e+00     1.2208655500e+00     1.6631440340e+01
         O     7.3593624000e+00     5.5909655500e+00     1.6536140340e+01
         O     8.0152624000e+00     3.1491655500e+00     1.9184340340e+01
         O     1.2795198000e+00     9.4492966500e+00     3.1444159400e+00
         O     4.0403198000e+00     1.6771296650e+01     1.9548159400e+00
         O     1.3526198000e+00     1.2401196650e+01     5.9161594000e-01
         O     3.9672198000e+00     1.3819396650e+01     4.5077159400e+00
         O     2.2588198000e+00     1.6259496650e+01     3.7784159400e+00
         O     3.0609198000e+00     9.9610966500e+00     1.3208159400e+00
         O     2.3319198000e+00     1.4331196650e+01     1.2255159400e+00
         O     2.9878198000e+00     1.1889396650e+01     3.8737159400e+00
         O     1.1333713000e+00     9.4492966500e+00     8.2501121400e+00
         O     3.8941713000e+00     1.6771296650e+01     7.0605121400e+00
         O     1.2064713000e+00     1.2401196650e+01     5.6973121400e+00
         O     3.8210713000e+00     1.3819396650e+01     9.6134121400e+00
         O     2.1126713000e+00     1.6259496650e+01     8.8841121400e+00
         O     2.9147713000e+00     9.9610966500e+00     6.4265121400e+00
         O     2.1857713000e+00     1.4331196650e+01     6.3312121400e+00
         O     2.8416713000e+00     1.1889396650e+01     8.9794121400e+00
         O     6.7454079000e+00     9.4492966500e+00     3.1379517400e+00
         O     9.5062079000e+00     1.6771296650e+01     1.9483517400e+00
         O     6.8185079000e+00     1.2401196650e+01     5.8515174000e-01
         O     9.4331079000e+00     1.3819396650e+01     4.5012517400e+00
         O     7.7247079000e+00     1.6259496650e+01     3.7719517400e+00
         O     8.5268079000e+00     9.9610966500e+00     1.3143517400e+00
         O     7.7978079000e+00     1.4331196650e+01     1.2190517400e+00
         O     8.4537079000e+00     1.1889396650e+01     3.8672517400e+00
         O     6.5992594000e+00     9.4492966500e+00     8.2436479400e+00
         O     9.3600594000e+00     1.6771296650e+01     7.0540479400e+00
         O     6.6723594000e+00     1.2401196650e+01     5.6908479400e+00
         O     9.2869594000e+00     1.3819396650e+01     9.6069479400e+00
         O     7.5785594000e+00     1.6259496650e+01     8.8776479400e+00
         O     8.3806594000e+00     9.9610966500e+00     6.4200479400e+00
         O     7.6516594000e+00     1.4331196650e+01     6.3247479400e+00
         O     8.3075594000e+00     1.1889396650e+01     8.9729479400e+00
         O     9.8722280000e-01     9.4492966500e+00     1.3355808340e+01
         O     3.7480228000e+00     1.6771296650e+01     1.2166208340e+01
         O     1.0603228000e+00     1.2401196650e+01     1.0803008340e+01
         O     3.6749228000e+00     1.3819396650e+01     1.4719108340e+01
         O     1.9665228000e+00     1.6259496650e+01     1.3989808340e+01
         O     2.7686228000e+00     9.9610966500e+00     1.1532208340e+01
         O     2.0396228000e+00     1.4331196650e+01     1.1436908340e+01
         O     2.6955228000e+00     1.1889396650e+01     1.4085108340e+01
         O     8.4107430000e-01     9.4492966500e+00     1.8461504540e+01
         O     3.6018743000e+00     1.6771296650e+01     1.7271904540e+01
         O     9.1417430000e-01     1.2401196650e+01     1.5908704540e+01
         O     3.5287743000e+00     1.3819396650e+01     1.9824804540e+01
         O     1.8203743000e+00     1.6259496650e+01     1.9095504540e+01
         O     2.6224743000e+00     9.9610966500e+00     1.6637904540e+01
         O     1.8934743000e+00     1.4331196650e+01     1.6542604540e+01
         O     2.5493743000e+00     1.1889396650e+01     1.9190804540e+01
         O     6.4531109000e+00     9.4492966500e+00     1.3349344140e+01
         O     9.2139109000e+00     1.6771296650e+01     1.2159744140e+01
         O     6.5262109000e+00     1.2401196650e+01     1.0796544140e+01
         O     9.1408109000e+00     1.3819396650e+01     1.4712644140e+01
         O     7.4324109000e+00     1.6259496650e+01     1.3983344140e+01
         O     8.2345109000e+00     9.9610966500e+00     1.1525744140e+01
         O     7.5055109000e+00     1.4331196650e+01     1.1430444140e+01
         O     8.1614109000e+00     1.1889396650e+01     1.4078644140e+01
         O     6.3069624000e+00     9.4492966500e+00     1.8455040340e+01
         O     9.0677624000e+00     1.6771296650e+01     1.7265440340e+01
         O     6.3800624000e+00     1.2401196650e+01     1.5902240340e+01
         O     8.9946624000e+00     1.3819396650e+01     1.9818340340e+01
         O     7.2862624000e+00     1.6259496650e+01     1.9089040340e+01
         O     8.0883624000e+00     9.9610966500e+00     1.6631440340e+01
         O     7.3593624000e+00     1.4331196650e+01     1.6536140340e+01
         O     8.0152624000e+00     1.1889396650e+01     1.9184340340e+01
