32
# CELL(GENH):    6.65000    0.00000    0.00000    0.00000    6.21000    0.00000   -1.17170    0.00000    6.76934 positions{angstrom} cell{angstrom}
         C     2.3394308900e+00     1.0458611600e+00     3.0275636200e+00
         C     3.1388731300e+00     4.1508359500e+00     3.7417384700e+00
         C     3.1413792800e+00     1.0538153500e+00     1.7413569400e+00
         C     2.3369154200e+00     4.1588353200e+00     5.0279563600e+00
         C     2.2986779300e+00     1.3334628200e+00     4.8877110000e-01
         C     3.1795995100e+00     4.4384903500e+00     6.2805512900e+00
         C     1.0833249800e+00     4.3536293000e-01     4.0805506000e-01
         C     4.3949551200e+00     3.5403844800e+00     6.3612849400e+00
         C     3.7649894000e-01     1.5086096000e-01     1.7190770300e+00
         C     5.1018056600e+00     3.2558776600e+00     5.0502651800e+00
         C     8.3730031000e-01     1.0501360800e+00     2.8784237100e+00
         C     4.6410094600e+00     4.1551284500e+00     3.8908975700e+00
         H     3.9608916400e+00     1.7802794300e+00     1.8368382800e+00
         H     1.5174051300e+00     4.8852981600e+00     4.9324580100e+00
         H     3.6038920200e+00     5.5822530000e-02     1.6721458900e+00
         H     1.8743858000e+00     3.1608504100e+00     5.0971724900e+00
         H     1.9093220300e+00     2.3659838600e+00     5.4620435000e-01
         H     3.5689229500e+00     5.4710228000e+00     6.2231366400e+00
         H     1.7147699900e+00     1.2349638000e+00     6.3361909700e+00
         H     3.7635117900e+00     4.3399572400e+00     4.3312965000e-01
         H     5.7544710000e-01     5.3021011500e+00     1.9571201100e+00
         H     4.9028663800e+00     2.1971134700e+00     4.8122545600e+00
         H     5.9459450600e+00     2.4488577000e-01     1.5532400000e+00
         H    -4.6764658000e-01     3.3499178400e+00     5.2161088000e+00
         H     5.5431857000e-01     2.0948336300e+00     2.6517975700e+00
         H     4.9239786200e+00     5.1998286600e+00     4.1175332800e+00
         H     3.7110885000e-01     7.6904526000e-01     3.8322153200e+00
         H     5.1072200700e+00     3.8740327600e+00     2.9371001600e+00
         O     2.8974455100e+00     1.0271129000e+00     4.1224546200e+00
         O     2.5808594400e+00     4.1320236300e+00     2.6468326200e+00
         O    -4.7541052000e-01     6.1541774700e+00     6.1212612000e+00
         O     5.9536438500e+00     3.0491585300e+00     6.4807731000e-01
