288
# CELL(GENH):   16.16920    0.00000    0.00000    0.00000   11.87500    0.00000   -1.73846    0.00000   14.20060 positions{angstrom} cell{angstrom}
         C     1.5219460850e+01     1.1743516000e-01     2.3443410400e+00
         C     4.1228091500e+00     5.8200648400e+00     4.7559589700e+00
         C     8.0509150000e-02     3.0861851200e+00     4.7559594100e+00
         C     3.0925605700e+00     2.8513148100e+00     2.3443406700e+00
         C    -1.8069041000e-01     9.7674390000e-01     1.5882806800e+00
         C     3.3537603900e+00     4.9607561100e+00     5.5120193300e+00
         C     1.5480660010e+01     3.9454940200e+00     5.5120198100e+00
         C     3.8616096800e+00     1.9920059100e+00     1.5882802600e+00
         C     2.0693460000e-01     6.3246278000e-01     2.6731594000e-01
         C     2.9661353900e+00     5.3050372300e+00     6.8329840600e+00
         C     1.5093035820e+01     3.6012134100e+00     6.8329850000e+00
         C     4.2492338800e+00     2.3362865200e+00     2.6731509000e-01
         C     1.2248051860e+01     1.4989646700e+00     6.5617332300e+00
         C     7.0942181100e+00     4.4385353400e+00     5.3856676000e-01
         C     3.0519176600e+00     4.4677148200e+00     5.3856792000e-01
         C     1.2115207000e-01     1.4697851300e+00     6.5617321900e+00
         C     1.2617565780e+01     1.1313969400e+00     5.2845873800e+00
         C     6.7247042100e+00     4.8061030700e+00     1.8157126300e+00
         C     2.6824032600e+00     4.1001466700e+00     1.8157134300e+00
         C     4.9066648000e-01     1.8373533000e+00     5.2845866700e+00
         C     1.5219460850e+01     6.0549351600e+00     2.3443410400e+00
         C     4.1228091500e+00     1.1757564840e+01     4.7559589700e+00
         C     8.0509150000e-02     9.0236851200e+00     4.7559594100e+00
         C     3.0925605700e+00     8.7888148100e+00     2.3443406700e+00
         C    -1.8069041000e-01     6.9142439000e+00     1.5882806800e+00
         C     3.3537603900e+00     1.0898256110e+01     5.5120193300e+00
         C     1.5480660010e+01     9.8829940200e+00     5.5120198100e+00
         C     3.8616096800e+00     7.9295059100e+00     1.5882802600e+00
         C     2.0693460000e-01     6.5699627800e+00     2.6731594000e-01
         C     2.9661353900e+00     1.1242537230e+01     6.8329840600e+00
         C     1.5093035820e+01     9.5387134100e+00     6.8329850000e+00
         C     4.2492338800e+00     8.2737865200e+00     2.6731509000e-01
         C     1.2248051860e+01     7.4364646700e+00     6.5617332300e+00
         C     7.0942181100e+00     1.0376035340e+01     5.3856676000e-01
         C     3.0519176600e+00     1.0405214820e+01     5.3856792000e-01
         C     1.2115207000e-01     7.4072851300e+00     6.5617321900e+00
         C     1.2617565780e+01     7.0688969400e+00     5.2845873800e+00
         C     6.7247042100e+00     1.0743603070e+01     1.8157126300e+00
         C     2.6824032600e+00     1.0037646670e+01     1.8157134300e+00
         C     4.9066648000e-01     7.7748533000e+00     5.2845866700e+00
         C     7.1348608500e+00     1.1743516000e-01     2.3443410400e+00
         C     1.2207409150e+01     5.8200648400e+00     4.7559589700e+00
         C     8.1651091500e+00     3.0861851200e+00     4.7559594100e+00
         C     1.1177160570e+01     2.8513148100e+00     2.3443406700e+00
         C     7.9039095900e+00     9.7674390000e-01     1.5882806800e+00
         C     1.1438360390e+01     4.9607561100e+00     5.5120193300e+00
         C     7.3960600100e+00     3.9454940200e+00     5.5120198100e+00
         C     1.1946209680e+01     1.9920059100e+00     1.5882802600e+00
         C     8.2915346000e+00     6.3246278000e-01     2.6731594000e-01
         C     1.1050735390e+01     5.3050372300e+00     6.8329840600e+00
         C     7.0084358200e+00     3.6012134100e+00     6.8329850000e+00
         C     1.2333833880e+01     2.3362865200e+00     2.6731509000e-01
         C     4.1634518600e+00     1.4989646700e+00     6.5617332300e+00
         C     1.5178818110e+01     4.4385353400e+00     5.3856676000e-01
         C     1.1136517660e+01     4.4677148200e+00     5.3856792000e-01
         C     8.2057520700e+00     1.4697851300e+00     6.5617321900e+00
         C     4.5329657800e+00     1.1313969400e+00     5.2845873800e+00
         C     1.4809304210e+01     4.8061030700e+00     1.8157126300e+00
         C     1.0767003260e+01     4.1001466700e+00     1.8157134300e+00
         C     8.5752664800e+00     1.8373533000e+00     5.2845866700e+00
         C     2.2233308500e+00     1.1743516000e-01     9.4446410400e+00
         C     7.2958791500e+00     5.8200648400e+00     1.1856258970e+01
         C     3.2535791500e+00     3.0861851200e+00     1.1856259410e+01
         C     6.2656305700e+00     2.8513148100e+00     9.4446406700e+00
         C     2.9923795900e+00     9.7674390000e-01     8.6885806800e+00
         C     6.5268303900e+00     4.9607561100e+00     1.2612319330e+01
         C     2.4845300100e+00     3.9454940200e+00     1.2612319810e+01
         C     7.0346796800e+00     1.9920059100e+00     8.6885802600e+00
         C     3.3800046000e+00     6.3246278000e-01     7.3676159400e+00
         C     6.1392053900e+00     5.3050372300e+00     1.3933284060e+01
         C     2.0969058200e+00     3.6012134100e+00     1.3933285000e+01
         C     7.4223038800e+00     2.3362865200e+00     7.3676150900e+00
         C    -7.4807814000e-01     1.4989646700e+00     1.3662033230e+01
         C     1.0267288110e+01     4.4385353400e+00     7.6388667600e+00
         C     6.2249876600e+00     4.4677148200e+00     7.6388679200e+00
         C     3.2942220700e+00     1.4697851300e+00     1.3662032190e+01
         C    -3.7856422000e-01     1.1313969400e+00     1.2384887380e+01
         C     9.8977742100e+00     4.8061030700e+00     8.9160126300e+00
         C     5.8554732600e+00     4.1001466700e+00     8.9160134300e+00
         C     3.6637364800e+00     1.8373533000e+00     1.2384886670e+01
         C     7.1348608500e+00     6.0549351600e+00     2.3443410400e+00
         C     1.2207409150e+01     1.1757564840e+01     4.7559589700e+00
         C     8.1651091500e+00     9.0236851200e+00     4.7559594100e+00
         C     1.1177160570e+01     8.7888148100e+00     2.3443406700e+00
         C     7.9039095900e+00     6.9142439000e+00     1.5882806800e+00
         C     1.1438360390e+01     1.0898256110e+01     5.5120193300e+00
         C     7.3960600100e+00     9.8829940200e+00     5.5120198100e+00
         C     1.1946209680e+01     7.9295059100e+00     1.5882802600e+00
         C     8.2915346000e+00     6.5699627800e+00     2.6731594000e-01
         C     1.1050735390e+01     1.1242537230e+01     6.8329840600e+00
         C     7.0084358200e+00     9.5387134100e+00     6.8329850000e+00
         C     1.2333833880e+01     8.2737865200e+00     2.6731509000e-01
         C     4.1634518600e+00     7.4364646700e+00     6.5617332300e+00
         C     1.5178818110e+01     1.0376035340e+01     5.3856676000e-01
         C     1.1136517660e+01     1.0405214820e+01     5.3856792000e-01
         C     8.2057520700e+00     7.4072851300e+00     6.5617321900e+00
         C     4.5329657800e+00     7.0688969400e+00     5.2845873800e+00
         C     1.4809304210e+01     1.0743603070e+01     1.8157126300e+00
         C     1.0767003260e+01     1.0037646670e+01     1.8157134300e+00
         C     8.5752664800e+00     7.7748533000e+00     5.2845866700e+00
         C     2.2233308500e+00     6.0549351600e+00     9.4446410400e+00
         C     7.2958791500e+00     1.1757564840e+01     1.1856258970e+01
         C     3.2535791500e+00     9.0236851200e+00     1.1856259410e+01
         C     6.2656305700e+00     8.7888148100e+00     9.4446406700e+00
         C     2.9923795900e+00     6.9142439000e+00     8.6885806800e+00
         C     6.5268303900e+00     1.0898256110e+01     1.2612319330e+01
         C     2.4845300100e+00     9.8829940200e+00     1.2612319810e+01
         C     7.0346796800e+00     7.9295059100e+00     8.6885802600e+00
         C     3.3800046000e+00     6.5699627800e+00     7.3676159400e+00
         C     6.1392053900e+00     1.1242537230e+01     1.3933284060e+01
         C     2.0969058200e+00     9.5387134100e+00     1.3933285000e+01
         C     7.4223038800e+00     8.2737865200e+00     7.3676150900e+00
         C    -7.4807814000e-01     7.4364646700e+00     1.3662033230e+01
         C     1.0267288110e+01     1.0376035340e+01     7.6388667600e+00
         C     6.2249876600e+00     1.0405214820e+01     7.6388679200e+00
         C     3.2942220700e+00     7.4072851300e+00     1.3662032190e+01
         C    -3.7856422000e-01     7.0688969400e+00     1.2384887380e+01
         C     9.8977742100e+00     1.0743603070e+01     8.9160126300e+00
         C     5.8554732600e+00     1.0037646670e+01     8.9160134300e+00
         C     3.6637364800e+00     7.7748533000e+00     1.2384886670e+01
         C     1.0307930850e+01     1.1743516000e-01     9.4446410400e+00
         C    -7.8872085000e-01     5.8200648400e+00     1.1856258970e+01
         C     1.1338179150e+01     3.0861851200e+00     1.1856259410e+01
         C     1.4350230570e+01     2.8513148100e+00     9.4446406700e+00
         C     1.1076979590e+01     9.7674390000e-01     8.6885806800e+00
         C     1.4611430390e+01     4.9607561100e+00     1.2612319330e+01
         C     1.0569130010e+01     3.9454940200e+00     1.2612319810e+01
         C    -1.0499203200e+00     1.9920059100e+00     8.6885802600e+00
         C     1.1464604600e+01     6.3246278000e-01     7.3676159400e+00
         C     1.4223805390e+01     5.3050372300e+00     1.3933284060e+01
         C     1.0181505820e+01     3.6012134100e+00     1.3933285000e+01
         C    -6.6229612000e-01     2.3362865200e+00     7.3676150900e+00
         C     7.3365218600e+00     1.4989646700e+00     1.3662033230e+01
         C     2.1826881100e+00     4.4385353400e+00     7.6388667600e+00
         C     1.4309587660e+01     4.4677148200e+00     7.6388679200e+00
         C     1.1378822070e+01     1.4697851300e+00     1.3662032190e+01
         C     7.7060357800e+00     1.1313969400e+00     1.2384887380e+01
         C     1.8131742100e+00     4.8061030700e+00     8.9160126300e+00
         C     1.3940073260e+01     4.1001466700e+00     8.9160134300e+00
         C     1.1748336480e+01     1.8373533000e+00     1.2384886670e+01
         C     1.0307930850e+01     6.0549351600e+00     9.4446410400e+00
         C    -7.8872085000e-01     1.1757564840e+01     1.1856258970e+01
         C     1.1338179150e+01     9.0236851200e+00     1.1856259410e+01
         C     1.4350230570e+01     8.7888148100e+00     9.4446406700e+00
         C     1.1076979590e+01     6.9142439000e+00     8.6885806800e+00
         C     1.4611430390e+01     1.0898256110e+01     1.2612319330e+01
         C     1.0569130010e+01     9.8829940200e+00     1.2612319810e+01
         C    -1.0499203200e+00     7.9295059100e+00     8.6885802600e+00
         C     1.1464604600e+01     6.5699627800e+00     7.3676159400e+00
         C     1.4223805390e+01     1.1242537230e+01     1.3933284060e+01
         C     1.0181505820e+01     9.5387134100e+00     1.3933285000e+01
         C    -6.6229612000e-01     8.2737865200e+00     7.3676150900e+00
         C     7.3365218600e+00     7.4364646700e+00     1.3662033230e+01
         C     2.1826881100e+00     1.0376035340e+01     7.6388667600e+00
         C     1.4309587660e+01     1.0405214820e+01     7.6388679200e+00
         C     1.1378822070e+01     7.4072851300e+00     1.3662032190e+01
         C     7.7060357800e+00     7.0688969400e+00     1.2384887380e+01
         C     1.8131742100e+00     1.0743603070e+01     8.9160126300e+00
         C     1.3940073260e+01     1.0037646670e+01     8.9160134300e+00
         C     1.1748336480e+01     7.7748533000e+00     1.2384886670e+01
         H     1.4924991410e+01     4.0588482000e-01     3.3532711400e+00
         H     4.4172785700e+00     5.5316151800e+00     3.7470288600e+00
         H     3.7497846000e-01     3.3746349500e+00     3.7470302300e+00
         H     2.7980912500e+00     2.5628650100e+00     3.3532698700e+00
         H     1.3369636000e-01     1.9402249100e+00     1.9888618500e+00
         H     3.0393735800e+00     3.9972751200e+00     5.1114381500e+00
         H     1.5166273610e+01     4.9089751000e+00     5.1114382900e+00
         H     4.1759960900e+00     1.0285248800e+00     1.9888618000e+00
         H     1.2558489910e+01     2.4593144200e+00     6.9723272600e+00
         H     6.7837800200e+00     3.4781856000e+00     1.2797274000e-01
         H     2.7414801600e+00     5.4280639600e+00     1.2797299000e-01
         H     4.3158959000e-01     5.0943599000e-01     6.9723270900e+00
         H     1.3231196970e+01     1.8045419200e+00     4.6831438600e+00
         H     6.1110730000e+00     4.1329581000e+00     2.4171561500e+00
         H     2.0687715300e+00     4.7732922300e+00     2.4171567200e+00
         H     1.1042982200e+00     1.1642077600e+00     4.6831433600e+00
         H     1.4924991410e+01     6.3433848200e+00     3.3532711400e+00
         H     4.4172785700e+00     1.1469115180e+01     3.7470288600e+00
         H     3.7497846000e-01     9.3121349500e+00     3.7470302300e+00
         H     2.7980912500e+00     8.5003650100e+00     3.3532698700e+00
         H     1.3369636000e-01     7.8777249100e+00     1.9888618500e+00
         H     3.0393735800e+00     9.9347751200e+00     5.1114381500e+00
         H     1.5166273610e+01     1.0846475100e+01     5.1114382900e+00
         H     4.1759960900e+00     6.9660248800e+00     1.9888618000e+00
         H     1.2558489910e+01     8.3968144200e+00     6.9723272600e+00
         H     6.7837800200e+00     9.4156856000e+00     1.2797274000e-01
         H     2.7414801600e+00     1.1365563960e+01     1.2797299000e-01
         H     4.3158959000e-01     6.4469359900e+00     6.9723270900e+00
         H     1.3231196970e+01     7.7420419200e+00     4.6831438600e+00
         H     6.1110730000e+00     1.0070458100e+01     2.4171561500e+00
         H     2.0687715300e+00     1.0710792230e+01     2.4171567200e+00
         H     1.1042982200e+00     7.1017077600e+00     4.6831433600e+00
         H     6.8403914100e+00     4.0588482000e-01     3.3532711400e+00
         H     1.2501878570e+01     5.5316151800e+00     3.7470288600e+00
         H     8.4595784600e+00     3.3746349500e+00     3.7470302300e+00
         H     1.0882691250e+01     2.5628650100e+00     3.3532698700e+00
         H     8.2182963600e+00     1.9402249100e+00     1.9888618500e+00
         H     1.1123973580e+01     3.9972751200e+00     5.1114381500e+00
         H     7.0816736100e+00     4.9089751000e+00     5.1114382900e+00
         H     1.2260596090e+01     1.0285248800e+00     1.9888618000e+00
         H     4.4738899100e+00     2.4593144200e+00     6.9723272600e+00
         H     1.4868380020e+01     3.4781856000e+00     1.2797274000e-01
         H     1.0826080160e+01     5.4280639600e+00     1.2797299000e-01
         H     8.5161895900e+00     5.0943599000e-01     6.9723270900e+00
         H     5.1465969700e+00     1.8045419200e+00     4.6831438600e+00
         H     1.4195673000e+01     4.1329581000e+00     2.4171561500e+00
         H     1.0153371530e+01     4.7732922300e+00     2.4171567200e+00
         H     9.1888982200e+00     1.1642077600e+00     4.6831433600e+00
         H     1.9288614100e+00     4.0588482000e-01     1.0453571140e+01
         H     7.5903485700e+00     5.5316151800e+00     1.0847328860e+01
         H     3.5480484600e+00     3.3746349500e+00     1.0847330230e+01
         H     5.9711612500e+00     2.5628650100e+00     1.0453569870e+01
         H     3.3067663600e+00     1.9402249100e+00     9.0891618500e+00
         H     6.2124435800e+00     3.9972751200e+00     1.2211738150e+01
         H     2.1701436100e+00     4.9089751000e+00     1.2211738290e+01
         H     7.3490660900e+00     1.0285248800e+00     9.0891618000e+00
         H    -4.3764009000e-01     2.4593144200e+00     1.4072627260e+01
         H     9.9568500200e+00     3.4781856000e+00     7.2282727400e+00
         H     5.9145501600e+00     5.4280639600e+00     7.2282729900e+00
         H     3.6046595900e+00     5.0943599000e-01     1.4072627090e+01
         H     2.3506697000e-01     1.8045419200e+00     1.1783443860e+01
         H     9.2841430000e+00     4.1329581000e+00     9.5174561500e+00
         H     5.2418415300e+00     4.7732922300e+00     9.5174567200e+00
         H     4.2773682200e+00     1.1642077600e+00     1.1783443360e+01
         H     6.8403914100e+00     6.3433848200e+00     3.3532711400e+00
         H     1.2501878570e+01     1.1469115180e+01     3.7470288600e+00
         H     8.4595784600e+00     9.3121349500e+00     3.7470302300e+00
         H     1.0882691250e+01     8.5003650100e+00     3.3532698700e+00
         H     8.2182963600e+00     7.8777249100e+00     1.9888618500e+00
         H     1.1123973580e+01     9.9347751200e+00     5.1114381500e+00
         H     7.0816736100e+00     1.0846475100e+01     5.1114382900e+00
         H     1.2260596090e+01     6.9660248800e+00     1.9888618000e+00
         H     4.4738899100e+00     8.3968144200e+00     6.9723272600e+00
         H     1.4868380020e+01     9.4156856000e+00     1.2797274000e-01
         H     1.0826080160e+01     1.1365563960e+01     1.2797299000e-01
         H     8.5161895900e+00     6.4469359900e+00     6.9723270900e+00
         H     5.1465969700e+00     7.7420419200e+00     4.6831438600e+00
         H     1.4195673000e+01     1.0070458100e+01     2.4171561500e+00
         H     1.0153371530e+01     1.0710792230e+01     2.4171567200e+00
         H     9.1888982200e+00     7.1017077600e+00     4.6831433600e+00
         H     1.9288614100e+00     6.3433848200e+00     1.0453571140e+01
         H     7.5903485700e+00     1.1469115180e+01     1.0847328860e+01
         H     3.5480484600e+00     9.3121349500e+00     1.0847330230e+01
         H     5.9711612500e+00     8.5003650100e+00     1.0453569870e+01
         H     3.3067663600e+00     7.8777249100e+00     9.0891618500e+00
         H     6.2124435800e+00     9.9347751200e+00     1.2211738150e+01
         H     2.1701436100e+00     1.0846475100e+01     1.2211738290e+01
         H     7.3490660900e+00     6.9660248800e+00     9.0891618000e+00
         H    -4.3764009000e-01     8.3968144200e+00     1.4072627260e+01
         H     9.9568500200e+00     9.4156856000e+00     7.2282727400e+00
         H     5.9145501600e+00     1.1365563960e+01     7.2282729900e+00
         H     3.6046595900e+00     6.4469359900e+00     1.4072627090e+01
         H     2.3506697000e-01     7.7420419200e+00     1.1783443860e+01
         H     9.2841430000e+00     1.0070458100e+01     9.5174561500e+00
         H     5.2418415300e+00     1.0710792230e+01     9.5174567200e+00
         H     4.2773682200e+00     7.1017077600e+00     1.1783443360e+01
         H     1.0013461410e+01     4.0588482000e-01     1.0453571140e+01
         H    -4.9425143000e-01     5.5316151800e+00     1.0847328860e+01
         H     1.1632648460e+01     3.3746349500e+00     1.0847330230e+01
         H     1.4055761250e+01     2.5628650100e+00     1.0453569870e+01
         H     1.1391366360e+01     1.9402249100e+00     9.0891618500e+00
         H     1.4297043580e+01     3.9972751200e+00     1.2211738150e+01
         H     1.0254743610e+01     4.9089751000e+00     1.2211738290e+01
         H    -7.3553391000e-01     1.0285248800e+00     9.0891618000e+00
         H     7.6469599100e+00     2.4593144200e+00     1.4072627260e+01
         H     1.8722500200e+00     3.4781856000e+00     7.2282727400e+00
         H     1.3999150160e+01     5.4280639600e+00     7.2282729900e+00
         H     1.1689259590e+01     5.0943599000e-01     1.4072627090e+01
         H     8.3196669700e+00     1.8045419200e+00     1.1783443860e+01
         H     1.1995430000e+00     4.1329581000e+00     9.5174561500e+00
         H     1.3326441530e+01     4.7732922300e+00     9.5174567200e+00
         H     1.2361968220e+01     1.1642077600e+00     1.1783443360e+01
         H     1.0013461410e+01     6.3433848200e+00     1.0453571140e+01
         H    -4.9425143000e-01     1.1469115180e+01     1.0847328860e+01
         H     1.1632648460e+01     9.3121349500e+00     1.0847330230e+01
         H     1.4055761250e+01     8.5003650100e+00     1.0453569870e+01
         H     1.1391366360e+01     7.8777249100e+00     9.0891618500e+00
         H     1.4297043580e+01     9.9347751200e+00     1.2211738150e+01
         H     1.0254743610e+01     1.0846475100e+01     1.2211738290e+01
         H    -7.3553391000e-01     6.9660248800e+00     9.0891618000e+00
         H     7.6469599100e+00     8.3968144200e+00     1.4072627260e+01
         H     1.8722500200e+00     9.4156856000e+00     7.2282727400e+00
         H     1.3999150160e+01     1.1365563960e+01     7.2282729900e+00
         H     1.1689259590e+01     6.4469359900e+00     1.4072627090e+01
         H     8.3196669700e+00     7.7420419200e+00     1.1783443860e+01
         H     1.1995430000e+00     1.0070458100e+01     9.5174561500e+00
         H     1.3326441530e+01     1.0710792230e+01     9.5174567200e+00
         H     1.2361968220e+01     7.1017077600e+00     1.1783443360e+01
