80
Lattice="7.399559719241918 9.861675346e-07 0.0874342329617301 -1.2546245361e-06 9.804022137406294 8.425820419e-07 -1.5098726534506044 -4.00495488e-08 12.49253065740311" Properties=species:S:1:pos:R:3 pbc="T T T"
O        0.90303189       8.66373068       2.80689957
O        2.04180784       3.76175033       3.48309381
O        4.98666273       1.14029611       9.77303588
O        3.84788189       6.04230425       9.09690603
O        1.36517725       5.11534121      10.08218779
O        0.06978880       0.21333475       8.70030764
O        4.52452401       4.68859122       2.49777590
O        5.81987751       9.59064299       3.87964326
N       -0.83158239       5.64482339      10.54220252
N        2.26654910       0.74281976       8.24030502
N        6.72129652       4.15918541       2.03774263
N        3.62311084       9.06121689       4.33968421
C       -0.71432849       6.41785879      11.74020940
C        2.14929499       1.51585876       7.04230060
C        6.60404693       3.38615791       0.83973010
C        3.74036785       8.28818286       5.53769161
C        1.89641755       6.34400563       0.11999071
C        1.04842034       1.44201182       6.16998961
C        3.99330313       3.46002458      12.45994735
C        4.84124181       8.36204398       6.41000195
C        1.91004015       7.09677288       1.29988890
C        1.03479689       2.19478654       4.99009641
C        3.97967411       2.70726227      11.28004705
C        4.85487191       7.60927620       7.58989943
C        0.83286566       7.93302540       1.62557330
C        2.11197296       3.03103792       4.66441500
C        5.05684134       1.87100135      10.95436089
C        3.77770494       6.77301373       7.91558292
C        7.13127016       8.00707184       0.84626258
C        3.21312994       3.10507584       5.53115830
C       -1.24156039       1.79694881      11.73366763
C        2.67654698       6.69896383       7.04884200
C        5.60414329       7.25240998      12.16411062
C        3.23038402       2.35040866       6.70583717
C        0.28557162       2.55160512       0.41582375
C        2.65928468       7.45362823       5.87416099
C        0.14946941       5.04092292       9.80311791
C        1.28549515       0.13891868       8.97938526
C        5.74023095       4.76304899       2.77683909
C        4.60416902       9.66508992       3.60058499
C       -0.34201491       4.22958442       8.60697749
C        1.77696959       9.13160710      10.17553252
C        6.23169467       5.57440290       3.97297637
C        4.11269248       0.67241546       2.40444763
H        0.03262954       9.07834502       3.02143417
H        2.91221499       4.17635468       3.26855667
H        5.85705600       0.72566007       9.55850472
H        2.97748765       5.62767014       9.31143484
H        1.22161667       5.70115920      12.38061177
H        0.21334754       0.79916537       6.40189455
H        4.66810866       4.10287657       0.19932692
H        5.67630887       9.00489639       6.17809224
H        2.75257142       7.01317803       1.97801706
H        0.19226306       2.11119755       4.31197072
H        3.13714253       2.79086628      10.60192052
H        5.69740322       7.69287880       8.26802642
H        6.29656735       8.65490713       1.08456663
H        4.04783340       3.75291007       5.29285488
H       -0.40685972       1.14911336      11.49535784
H        1.84184873       6.05112334       7.28714713
H        4.74555378       7.31021224      11.50244024
H        4.08897323       2.40820609       7.36750831
H        1.14416195       2.49379668       1.07749283
H        1.80069301       7.39582424       5.21249342
H        5.62834907       5.60118496      10.24059796
H        3.20617691       0.69918049       8.62934522
H        0.26136494       4.20283772       2.33934625
H        2.68348134       9.10486253       3.95064938
H        0.23323147       4.50092220       7.71872027
H        1.20172210       9.40295623      11.06378552
H        5.65642872       5.30308071       4.86122516
H        4.68793951       0.40107983       1.51619028
H       -0.15339942       3.16860596       8.80058643
H        1.58834546       8.07062896       9.98193080
H        6.04308560       6.63537862       3.77934458
H        4.30131288       1.73339186       2.59806415
H        5.99346152       4.36388535       8.49159195
H        2.84105301       9.26590126      10.37835539
H       -0.10378604       5.44010308       4.08838477
H        3.04860876       0.53812201       2.20162554
80
Lattice="7.235016812532181 9.5604904e-09 0.0188206636263858 -1.7012343035e-06 9.250865003731539 1.7910317914e-06 -1.593420510081483 2.7506680345e-06 12.232007792272748" Properties=species:S:1:pos:R:3 pbc="T T T"
O        0.81420398       8.39207869       2.67996562
O        2.00659924       3.76667275       3.44545203
O        4.82737566       0.85876773       9.57087105
O        3.63500538       5.48421890       8.80538134
O        1.22292286       4.63780039       9.85035448
O        0.00444164       0.01239332       8.50706275
O        4.41868591       4.61306316       2.40048381
O        5.63714075       9.23849903       3.74376059
N       -0.96718975       5.22287760      10.26244776
N        2.19455658       0.59746182       8.09497345
N        6.60879452       4.02797707       1.98838219
N        3.44702863       8.65342132       4.15585534
C       -0.86047080       6.01910587      11.44269741
C        2.08784127       1.39369439       6.91472606
C        6.50206787       3.23174240       0.80813756
C        3.55374905       7.85719283       5.33610460
C        1.84063835       5.99888749       0.07597304
C        0.98016457       1.37346414       6.04942766
C        3.80096259       3.25197405      12.17485738
C        4.66143184       7.87742079       6.20139498
C        1.84485087       6.79361327       1.22715747
C        0.97595750       2.16818913       4.89824291
C        3.79674484       2.45724775      11.02367363
C        4.66564501       7.08269614       7.35258018
C        0.74911268       7.61304728       1.53174490
C        2.07168766       2.98764001       4.59367198
C        4.89247306       1.63779837      10.71909195
C        3.56991318       6.26325097       7.65716082
C        6.87150813       7.62489205       0.69682060
C        3.18429650       2.99950129       5.44743270
C       -1.22992756       1.62593728      11.55402255
C        2.45729750       6.25139402       6.80340880
C        5.27258137       6.83255482      11.78111226
C        3.18979850       2.20715954       6.59514803
C        0.36900465       2.41827576       0.46973026
C        2.45179122       7.04373204       5.65569140
C        0.00897089       4.59165161       9.54904102
C        1.21839178       9.21709949       8.80837693
C        5.63263976       4.65921104       2.70178968
C        4.42319025       0.03378304       3.44244657
C       -0.47734003       3.79490935       8.34435560
C        1.70469961       8.42034138      10.01305319
C        6.11895899       5.45595597       3.90647023
C        3.93687776       0.83052600       2.23776245
H       -0.06469518       8.78783799       2.90486433
H        2.88549907       4.16243145       3.22055462
H        5.70627559       0.46301513       9.34596293
H        2.75610708       5.08845749       9.03027936
H        1.09644874       5.36986565      12.09074397
H        0.13093844       0.74442891       6.26665216
H        4.54515940       3.88100731       0.16008163
H        5.51065750       8.50645416       5.98416322
H        2.69497975       6.75322763       1.89922804
H        0.12583979       2.12779031       4.22615919
H        2.94662072       2.49764580      10.35159791
H        5.51576915       7.12309169       8.02465602
H        6.02047185       8.25599009       0.92076392
H        4.03532464       3.63061508       5.22350280
H       -0.37890018       0.99482536      11.33008530
H        1.60626663       5.62028694       7.02734689
H        4.40745244       6.84333206      11.12624746
H        4.05491769       2.21794897       7.25002547
H        1.23412885       2.40748382       1.12460114
H        1.58666880       7.03294230       5.00081842
H        5.33016920       5.17439055       9.88633486
H        3.13221358       0.54896981       8.48990848
H        0.31143772       4.07646606       2.36448974
H        2.50937056       8.70190740       3.76092227
H        0.09632093       4.08033709       7.45929077
H        1.13107211       8.70579225      10.89813257
H        5.54537963       5.17044912       4.79156358
H        4.51052732       0.54508852       1.35269328
H       -0.28330464       2.73338130       8.52124340
H        1.51061829       7.35882115       9.83617043
H        5.92482179       6.51747225       3.72962867
H        4.13092664       1.89205235       2.41464506
H        5.69391538       3.92831908       8.16286827
H        2.76847083       8.55370983      10.21333607
H       -0.05227343       5.32262738       4.08788775
H        2.87311314       0.69712692       2.03746465
80
Lattice="7.146768033208815 -7.08588989e-08 -0.0093803270835533 -3.3163267396e-06 9.002124574020113 4.674360284e-06 -1.624343076752415 4.3549482191e-06 12.083037581360955" Properties=species:S:1:pos:R:3 pbc="T T T"
O        0.77580158       8.27593383       2.64317187
O        1.98543547       3.77483577       3.39363372
O        4.74661751       0.72622139       9.43047646
O        3.53699438       5.22726696       8.68002225
O        1.16784719       4.41331866       9.75421923
O       -0.03101043       8.91439120       8.36564789
O        4.35457396       4.58882876       2.31944441
O        5.55343015       0.08773016       3.70802054
N       -1.01617880       5.03580397      10.13374102
N        2.15302517       0.53473484       7.98612716
N        6.53859710       3.96633595       1.93991866
N        3.36939586       8.46738375       4.08754150
C       -0.91487917       5.84166377      11.30538010
C        2.05173760       1.34058475       6.81448032
C        6.43729529       3.16048293       0.76827482
C        3.47068768       7.66152766       5.25918358
C        1.82219460       5.85278773       0.07991536
C        0.93900848       1.35172112       5.95690561
C        3.70021304       3.14934599      11.99375039
C        4.58341304       7.65039939       6.11676323
C        1.82034681       6.66783624       1.21585924
C        0.94086928       2.16676151       4.82095599
C        3.70206144       2.33430058      10.85780377
C        4.58155438       6.83535675       7.25271112
C        0.71270912       7.47290444       1.51343497
C        2.04851686       2.97181467       4.52337693
C        4.80970777       1.52924873      10.56021507
C        3.47391270       6.03029207       7.55028184
C        6.73876905       7.44733766       0.66239386
C        3.16922389       2.94623885       5.36503899
C       -1.21634398       1.55482936      11.41124520
C        2.35321075       6.05585733       6.70861309
C        5.11627253       6.63736269      11.61152676
C        3.16736522       2.13626609       6.49894828
C        0.40615191       2.36480078       0.46211424
C        2.35506704       6.86583359       5.57470637
C       -0.04354094       4.38829344       9.43587346
C        1.18037596       8.88936246       8.68400059
C        5.56596175       4.61384378       2.63779225
C        4.34204309       0.11276195       3.38967081
C       -0.52435367       3.60617274       8.22212462
C        1.66117878       8.10724839       9.89775729
C        6.04677682       5.39594879       3.85155031
C        3.86123846       0.89488276       2.17591923
H       -0.10635222       8.66250082       2.87665901
H        2.86758789       4.16141398       3.16016099
H        5.62877052       0.33965050       9.19699299
H        2.65484014       4.84069444       8.91349809
H        1.05639090       5.23529353      11.95052473
H        0.08046044       0.73423507       6.16933437
H        4.46600924       3.76682670       0.12315039
H        5.44195637       8.26789379       5.90433932
H        2.67627785       6.65457503       1.88067520
H        0.08493961       2.15350518       4.15613839
H        2.84612303       2.34755320      10.19299676
H        5.43748096       6.84862006       7.91753265
H        5.87638158       8.06344228       0.88318532
H        4.03162060       3.56232962       5.14424389
H       -0.35394842       0.93873957      11.19044293
H        1.49082171       5.43975291       6.92940004
H        4.24587049       6.61731471      10.96488454
H        4.03776744       2.11620797       7.14558966
H        1.27656062       2.38486021       1.10874723
H        1.48466913       6.88588409       4.92805891
H        5.19375218       4.98429087       9.72691088
H        3.08985885       0.48322239       8.38358471
H        0.32866685       4.01784413       2.34674758
H        2.43256060       8.51890096       3.69008849
H        0.05314569       3.90109962       7.34304020
H        1.08362985       8.40213327      10.77682230
H        5.46924121       5.10105014       4.73061998
H        4.43874039       0.59995264       1.29683792
H       -0.33160512       2.54342416       8.38594998
H        1.46848871       7.04449233       9.73390852
H        5.85407762       6.45870534       3.68771605
H        4.05399063       1.95763051       2.33974488
H        5.56065423       3.74407360       8.00946965
H        2.72292477       8.24519641      10.10107495
H       -0.03824198       5.25800419       4.06423331
H        2.79947859       0.75698586       1.97263993
80
Lattice="7.0899847999759835 -2.3188494981e-06 -0.0345540572499259 -5.9312157166e-06 8.811655778345033 4.921547116e-06 -1.6575328231488735 5.6366202661e-06 11.981463631134721" Properties=species:S:1:pos:R:3 pbc="T T T"
O        0.74486819       8.19287881       2.62067713
O        1.97135624       3.78704825       3.35278230
O        4.68758924       0.61878826       9.32623816
O        3.46108363       5.02459584       8.59413151
O        1.11860417       4.25434353       9.69845728
O       -0.05992931       8.66017180       8.25646457
O        4.31382805       4.55731828       2.24844477
O        5.49238462       0.15148202       3.69046192
N       -1.06091426       4.90077081      10.05437916
N        2.11959899       0.49493206       7.90054122
N        6.49335030       3.91089674       1.89253612
N        3.31285594       8.31671941       4.04637768
C       -0.96444572       5.71329401      11.21933931
C        2.02313372       1.30745478       6.73558078
C        6.39688910       3.09837458       0.72757449
C        3.40931804       7.50419444       5.21133697
C        1.81061857       5.75152246       0.08699911
C        0.90560084       1.34569389       5.88645913
C        3.62182568       3.06014050      11.85991355
C        4.52684142       7.46596718       6.06047150
C        1.80271538       6.58123113       1.21127861
C        0.91350606       2.17540306       4.76218011
C        3.62973363       2.23043101      10.73563484
C        4.51893283       6.63625669       7.18474949
C        0.68382172       7.37054409       1.50644409
C        2.03240281       2.96471050       4.46701282
C        4.74863179       1.44112437      10.44047002
C        3.40004227       5.84693417       7.47990128
C        6.64570151       7.31175068       0.64296768
C        3.16051033       2.90591148       5.29593127
C       -1.21324771       1.49992562      11.30394570
C        2.27194526       5.90571865       6.65096793
C        4.99702074       6.48958229      11.50067080
C        3.15165613       2.08373791       6.41969175
C        0.43542770       2.32209337       0.44624306
C        2.28080204       6.72789578       5.52720995
C       -0.09054643       4.24269628       9.36779065
C        1.14922133       8.64851609       8.58713149
C        5.52297697       4.56897010       2.57911786
C        4.28323504       0.16313723       3.35979124
C       -0.56618794       3.47156396       8.14738507
C        1.62485751       7.87737415       9.80753203
C        5.99860864       5.34010917       3.79952254
C        3.80760164       0.93427963       2.13938937
H       -0.14156201       8.56501305       2.86542776
H        2.85778648       4.15918304       3.10803279
H        5.57402025       0.24665347       9.08149188
H        2.57465187       4.65246083       8.83887570
H        1.02013275       5.14555847      11.85866896
H        0.03855184       0.73972738       6.09625256
H        4.41230829       3.66610017       0.08824248
H        5.39388568       8.07194435       5.85068886
H        2.66405294       6.59182876       1.86811688
H        0.05216721       2.18600562       4.10534355
H        2.76839591       2.21982747      10.07879672
H        5.38026371       6.62566506       7.84159668
H        5.77251475       7.91160543       0.86473317
H        4.03370076       3.50576008       5.07416435
H       -0.34005654       0.90007736      11.08217932
H        1.39876224       5.30585419       6.87272096
H        4.12170046       6.44114085      10.86325858
H        4.02697857       2.03529119       7.05710075
H        1.31074789       2.37054006       1.08365515
H        1.40548751       6.77633148       4.88978947
H        5.09215083       4.84286324       9.62296391
H        3.05651763       0.43702409       8.29740419
H        0.34028278       3.96880508       2.32395684
H        2.37593863       8.37462605       3.64951130
H        0.00363190       3.78508728       7.27001106
H        1.05501644       8.19087264      10.68490072
H        5.42875098       5.02662277       4.67688464
H        4.37744257       0.62077900       1.26202134
H       -0.36039115       2.40990228       8.29496813
H        1.41908339       6.81571057       9.65992864
H        5.79285179       6.40177547       3.65191331
H        4.01337861       1.99594272       2.28699189
H        5.46074950       3.60146243       7.91577316
H        2.68789976       8.00729037      10.00460852
H       -0.02833828       5.21018058       4.03116746
H        2.74455916       0.80436591       1.94231186
80
Lattice="7.047743436359078 -9.8788344e-07 -0.0573879238814756 -3.2689910857e-06 8.63093956671076 -3.18815599e-06 -1.691160940618996 8.590350042e-07 11.927226090598445" Properties=species:S:1:pos:R:3 pbc="T T T"
O        0.71901710       8.10305164       2.61577737
O        1.95925465       3.78758662       3.31915052
O        4.63756151       0.52788873       9.25405796
O        3.39732584       4.84334607       8.55068009
O        1.07285559       4.11680187       9.68334344
O       -0.08571803       8.43224850       8.17880624
O        4.28372399       4.51414037       2.18649055
O        5.44229521       0.19868793       3.69103051
N       -1.10160300       4.78634753      10.02006926
N        2.08873786       0.47087179       7.84207894
N        6.45818230       3.84459284       1.84976674
N        3.26783826       8.16006907       4.02775858
C       -1.00887030       5.60111089      11.18142363
C        1.99599980       1.28563332       6.68072306
C        6.36545148       3.02983148       0.68841057
C        3.36057667       7.34530562       5.18911283
C        1.80512005       5.66246705       0.09358319
C        0.87316694       1.34699117       5.84134193
C        3.55146079       2.96847403      11.77625163
C        4.48340982       7.28394797       6.02849340
C        1.79126979       6.49945777       1.21136828
C        0.88701127       2.18398518       4.72355874
C        3.56531082       2.13148337      10.65846664
C        4.46956767       6.44695142       7.14627459
C        0.66100882       7.26968112       1.51087810
C        2.01726962       2.95421098       4.42404597
C        4.69557219       1.36126126      10.35895558
C        3.33931020       5.67672389       7.44578634
C        6.57380219       7.18268525       0.63763743
C        3.15222333       2.86721465       5.23989339
C       -1.21721932       1.44826073      11.23219337
C        2.20435585       5.76372037       6.62993974
C        4.89798426       6.35536022      11.44622281
C        3.13688647       2.03988578       6.35853181
C        0.45859849       2.27558533       0.42360850
C        2.21969101       6.59105125       5.51130271
C       -0.13432836       4.11778952       9.34290288
C        1.12146548       8.43325045       8.51924781
C        5.49090734       4.51315058       2.52693314
C        4.23511153       0.19768874       3.35058958
C       -0.60701079       3.35668714       8.11720153
C        1.59415533       7.67216418       9.74495678
C        5.96358952       5.27424943       3.75263721
C        3.76242301       0.95877635       2.12488103
H       -0.17159684       8.45846141       2.87296373
H        2.84986829       4.14299023       3.06195466
H        5.52817476       0.17247909       8.99686926
H        2.50671155       4.48794450       8.80787652
H        0.98924586       5.06965514      11.80932002
H       -0.00211815       0.75417661       6.05283286
H        4.36733459       3.56128494       0.06051545
H        5.35869329       7.87676502       5.81700242
H        2.65798673       6.52960339       1.85933532
H        0.02029161       2.21413155       4.07559524
H        2.69859305       2.10133685      10.01050071
H        5.33628786       6.41680466       7.79423734
H        5.69027836       7.76434809       0.86521080
H        4.03574526       3.44887975       5.01231831
H       -0.33369391       0.86660132      11.00461691
H        1.32083536       5.18205267       6.85751354
H        4.01775551       6.28176753      10.81899830
H        4.01711828       1.96629415       6.98575202
H        1.33882877       2.34917971       1.05083057
H        1.33945867       6.66464317       4.88408322
H        5.00855491       4.72184006       9.56807749
H        3.02632459       0.40637035       8.23668075
H        0.34802351       3.90909846       2.30176076
H        2.33025155       8.22457155       3.63315717
H       -0.05689013       3.69798762       7.23774580
H        1.04399866       8.01343452      10.62440126
H        5.41346045       4.93295413       4.63208971
H        4.31257347       0.61749826       1.24543547
H       -0.37564060       2.29873143       8.24351741
H        1.36283751       6.61419744       9.61863321
H        5.73222965       6.33220746       3.62631990
H        3.99375087       2.01674120       2.25120171
H        5.37364923       3.46744911       7.87849806
H        2.66122952       7.78297601       9.92629654
H       -0.01707227       5.16347769       3.99134621
H        2.69534699       0.84797299       1.94354613
80
Lattice="6.949584998354961 2.649153374e-06 -0.0729656456154745 2.1279593489e-06 8.326317617119372 2.40211177009e-05 -1.7070044863414557 -6.9261412311e-06 11.931615369773532" Properties=species:S:1:pos:R:3 pbc="T T T"
O        0.68804856       7.94453715       2.64233475
O        1.93322802       3.78138888       3.28702169
O        4.55453774       0.38177165       9.21634381
O        3.30935441       4.54491790       8.57164482
O        1.01939665       3.90287632       9.75976275
O       -0.10509157       8.06602145       8.10121878
O        4.22318474       4.42343592       2.09890904
O        5.34767454       0.26028876       3.75744860
N       -1.14060186       4.62517611      10.06439073
N        2.05490011       0.46201926       7.79656894
N        6.38318415       3.70113817       1.79428475
N        3.18768132       7.86430122       4.06210771
C       -1.04690808       5.43945599      11.22212849
C        1.96119995       1.27630294       6.63883433
C        6.28949287       2.88685848       0.63654653
C        3.28138135       7.05001843       5.21984299
C        1.79877648       5.53969957       0.10243096
C        0.82251802       1.37653526       5.82691832
C        3.44380968       2.78661395      11.75624236
C        4.42006310       6.94978437       6.03175898
C        1.78149052       6.37834170       1.21680406
C        0.83979728       2.21518086       4.71254764
C        3.46109738       1.94796977      10.64187100
C        4.40278408       6.11113425       7.14612658
C        0.63269361       7.10760993       1.54218870
C        1.98858955       2.94445698       4.38716389
C        4.60989475       1.21870115      10.31648823
C        3.25399218       5.38185612       7.47150729
C        6.43187831       6.97662623       0.68384341
C        3.13899109       2.81347653       5.17254273
C       -1.18929014       1.34968768      11.17483381
C        2.10358965       5.51284122       6.68613060
C        4.74296196       6.14848370      11.49984344
C        3.12090943       1.98533810       6.28815606
C        0.49962368       2.17783116       0.35883341
C        2.12167117       6.34098367       5.57052032
C       -0.18452287       3.92732200       9.40616688
C        1.09882763       8.09047424       8.45481481
C        5.42710352       4.39899050       2.45250776
C        4.14375478       0.23583746       3.40385431
C       -0.65812958       3.17439772       8.17989274
C        1.57243940       7.33755189       9.68108783
C        5.90070660       5.15191427       3.67878382
C        3.67014335       0.98875236       2.17757624
H       -0.20825690       8.26575755       2.92825912
H        2.82953268       4.10260639       3.00109066
H        5.45084211       0.06055170       8.93041602
H        2.41304930       4.22370247       8.85757633
H        0.98011213       4.97405234      11.80721150
H       -0.06581835       0.81088918       6.05375334
H        4.26247357       3.35226106       0.05146007
H        5.30839896       7.51543240       5.80492648
H        2.66098278       6.43578367       1.84302905
H       -0.03969613       2.27261923       4.08632387
H        2.58160591       1.89052553      10.01564517
H        5.28227715       6.05369375       7.77235071
H        5.53281573       7.52266012       0.93371171
H        4.03804850       3.35951986       4.92267782
H       -0.29022553       0.80365592      10.92496749
H        1.20453180       4.96679817       6.93599498
H        3.84893988       6.03395194      10.90008303
H        4.01493146       1.87081480       6.88791839
H        1.39364465       2.29236384       0.95859518
H        1.22764861       6.45551062       4.97075943
H        4.86942675       4.55335043       9.60214936
H        2.99445708       0.39019689       8.18584441
H        0.37315491       3.77296384       2.25652768
H        2.24812409       7.93612316       3.67283299
H       -0.19765712       3.59816504       7.28464844
H        1.11195439       7.76130857      10.57633066
H        5.44022151       4.72815510       4.57402532
H        4.13064922       0.56500684       1.28233912
H       -0.32944288       2.14021583       8.24789816
H        1.24376977       6.30336480       9.61307742
H        5.57203020       6.18609925       3.61077269
H        3.99879133       2.02294638       2.24559176
H        5.21180585       3.20113793       7.99179262
H        2.65208802       7.36430612       9.79622773
H        0.03076992       5.12516480       3.86689435
H        2.59049675       0.96197681       2.06242185
80
Lattice="6.854337458609667 6.3939901968e-06 -0.0784475182309261 9.1668797397e-06 8.094188880640896 -2.40421449988e-05 -1.709332184257954 -1.08076640047e-05 11.962950535177178" Properties=species:S:1:pos:R:3 pbc="T T T"
O        0.66079436       7.81832789       2.66481120
O        1.91172978       3.77121344       3.27741227
O        4.48421589       0.27586273       9.21966817
O        3.23328939       4.32296531       8.60706299
O        0.97913269       3.74511529       9.84523079
O       -0.11595398       7.79220995       8.05992167
O        4.16588369       4.34907965       2.03925172
O        5.26096458       0.30197601       3.82455626
N       -1.16770882       4.51136303      10.11824907
N        2.03087685       0.46427702       7.78693883
N        6.31272184       3.58282181       1.76623405
N        3.11413452       7.62990855       4.09754042
C       -1.07385022       5.32212313      11.27550856
C        1.93702435       1.27503362       6.62967627
C        6.21886198       2.77206499       0.60897243
C        3.20798981       6.81915100       5.25480233
C        1.78529839       5.44829365       0.10330859
C        0.78721161       1.40119329       5.83892070
C        3.35971194       2.64589327      11.78117465
C        4.35780349       6.69299161       6.04555684
C        1.76698310       6.28358268       1.21810856
C        0.80553367       2.23647940       4.72411877
C        3.37802685       1.81060469      10.66637410
C        4.33948388       5.85770342       7.16035758
C        0.60708391       6.98308660       1.56542410
C        1.96543626       2.93597817       4.37680394
C        4.53792717       1.11110411      10.31905518
C        3.17958273       5.15820211       7.50767222
C        6.30084390       6.82257783       0.72498407
C        3.12601156       2.77545979       5.13879943
C       -1.15583059       1.27161720      11.15949118
C        2.01900725       5.31871840       6.74567660
C        4.60958657       5.99647924      11.57282258
C        3.10792886       1.94937705       6.25391547
C        0.53542656       2.09771356       0.31165426
C        2.03708725       6.14480356       5.63056236
C       -0.22053555       3.78876812       9.47809833
C        1.08371260       7.83586605       8.42705958
C        5.36555115       4.30541939       2.40638578
C        4.06129828       0.25831806       3.45741757
C       -0.69361994       3.03837572       8.25372162
C        1.55679425       7.08547115       9.65143671
C        5.83863812       5.05580473       3.63076584
C        3.58821846       1.00870775       2.23303644
H       -0.23803879       0.01763729       2.97571222
H        2.81055299       4.06472235       2.96654350
H        5.38304852       8.07655119       8.90876787
H        2.33446539       4.02946207       8.91793450
H        0.97208066       4.90205588      11.82670087
H       -0.10890468       0.85496816       6.07847598
H        4.17292929       3.19212976       0.05778428
H        5.25391920       7.23921752       5.80600132
H        2.65456308       6.35481860       1.82889838
H       -0.08204359       2.30771707       4.11332525
H        2.49044594       1.73936650      10.05558584
H        5.22706210       5.78646564       7.77114980
H        5.39268869       7.34275221       0.99305959
H        4.03417218       3.29562428       4.87072194
H       -0.24767292       0.75144965      10.89141043
H        1.11084896       4.79854862       7.01375181
H        3.70585882       5.85456773      10.99510816
H        4.01165481       1.80746076       6.83163136
H        1.43915558       2.23962926       0.88936582
H        1.13336120       6.28671699       5.05284600
H        4.74660926       4.43595360       9.65195224
H        2.97089507       0.38886085       8.17479088
H        0.39840386       3.65822711       2.23253128
H        2.17411559       7.70532471       3.70968982
H       -0.32478905       3.52676266       7.34922380
H        1.18798250       7.57386919      10.55593649
H        5.46980140       4.56741817       4.53526143
H        3.95703042       0.52030305       1.32854034
H       -0.28036927       2.03602315       8.27078117
H        1.14352459       6.08312636       9.63438506
H        5.42539571       6.05816079       3.61370872
H        4.00149027       2.01105178       2.25008247
H        5.07889710       2.98466492       8.11947054
H        2.63861431       7.03173445       9.70723032
H        0.06612130       5.10950657       3.76501982
H        2.50639872       1.06244579       2.17723962
80
Lattice="6.785151382602641 -4.9448482215e-06 -0.0829968680100424 -1.09554418945e-05 7.906699721712006 -2.9525679113e-06 -1.7133457263855887 1.72514457339e-05 11.968144954070599" Properties=species:S:1:pos:R:3 pbc="T T T"
O        0.63477231       7.70697470       2.67476474
O        1.90111519       3.75362856       3.26780337
O        4.43701463       0.19973726       9.21038297
O        3.17068822       4.15308500       8.61734195
O        0.94395144       3.61627386       9.88466189
O       -0.12141090       7.56962054       8.02606016
O        4.12785050       4.29044212       2.00048605
O        5.19319717       0.33709489       3.85908095
N       -1.19192482       4.41621472      10.13021453
N        2.01447767       0.46285554       7.78050144
N        6.26372695       3.49050098       1.75493088
N        3.05731096       7.44385485       4.10464261
C       -1.10024660       5.21935420      11.29040832
C        1.92279708       1.26599304       6.62030669
C        6.17204642       2.68736215       0.59473680
C        3.14899504       6.64071858       5.26483799
C        1.76774615       5.35828260       0.10191282
C        0.76814703       1.40494005       5.84066183
C        3.30405062       2.54843338      11.78323682
C        4.30364734       6.50177324       6.04447962
C        1.74758832       6.18937561       1.21783022
C        0.78830149       2.23603254       4.72474382
C        3.32420299       1.71733820      10.66732070
C        4.28349733       5.67068098       7.16039788
C        0.58187307       6.87104454       1.57770743
C        1.95401681       2.91769830       4.36486062
C        4.48991690       1.03566932      10.30743895
C        3.11778363       4.98901429       7.52028425
C        6.20117009       6.69155263       0.74781659
C        3.11987430       2.73820773       5.11174901
C       -1.12937673       1.21516376      11.13732400
C        1.95192393       5.16850258       6.77339886
C        4.50714990       5.86891959      11.60016548
C        3.10055212       1.91555948       6.22754648
C        0.56464877       2.03779741       0.28497480
C        1.97124178       5.99115110       5.65760164
C       -0.25081768       3.67797100       9.50320785
C        1.07335931       7.63131658       8.40751083
C        5.32261955       4.22874246       2.38194017
C        3.99842707       0.27539462       3.47763074
C       -0.72090186       2.93366130       8.27738211
C        1.54344496       6.88701231       9.63333883
C        5.79270219       4.97304640       3.60776970
C        3.52833930       1.01969348       2.25179995
H       -0.26484621       0.07621410       3.00237051
H        2.80074463       4.02956180       2.94019480
H        5.33663277       7.83050092       8.88277384
H        2.27105950       3.87715049       8.94495098
H        0.95438744       4.82302751      11.82382890
H       -0.13183949       0.86966853       6.08689466
H        4.11741139       3.08369082       0.06132326
H        5.20363203       7.03704592       5.79824304
H        2.63838627       6.26542153       1.82078027
H       -0.10249924       2.31208010       4.12179797
H        2.43340210       1.64129116      10.06437495
H        5.17430005       5.59463388       7.76334097
H        5.28743850       7.19344131       1.02789524
H        4.03360716       3.24008990       4.83166396
H       -0.21564553       0.71327753      10.85724023
H        1.03819332       4.66661743       7.05348647
H        3.59873703       5.70905927      11.03640263
H        4.00896772       1.75569693       6.79130471
H        1.47306492       2.19765991       0.84873204
H        1.06282432       6.15101372       5.09384658
H        4.65328485       4.33807416       9.65972385
H        2.95442004       0.38471949       8.16799330
H        0.41851758       3.56864029       2.22542133
H        2.11736773       7.52198892       3.71715244
H       -0.40541220       3.45597826       7.37249448
H        1.22794814       7.40932949      10.53822387
H        5.47719784       4.45073265       4.51265408
H        3.84382921       0.49736737       1.34691754
H       -0.26401049       1.95285334       8.26384999
H        1.08656100       5.90620093       9.64687208
H        5.33582255       5.95386003       3.62129931
H        3.98522772       2.00050266       2.23825827
H        4.98559558       2.83619218       8.16928322
H        2.62209956       6.78955638       9.65844468
H        0.08620551       5.07050241       3.71587924
H        2.44968479       1.11715334       2.22669834
