32
Lattice="6.72791738047903 -6.04459857e-08 0.0376115452692397 -8.00870301e-08 6.290922305668566 1.261402818e-07 -1.1470617375496246 1.076832612e-07 6.88357491860571" Properties=species:S:1:pos:R:3 pbc="T T T"
C        2.36225538       1.06971751       3.06643332
C        3.21858799       4.21517955       3.85473395
C        3.17056934       1.07797201       1.77072268
C        2.41027733       4.22343388       5.15044680
C        2.31913646       1.34487976       0.50633046
C        3.26171038       4.49034060       6.41484167
C        1.10176675       0.43092336       0.43104118
C        4.47907957       3.57637890       6.49013679
C        0.38409203       0.15230465       1.75171920
C        5.19675284       3.29776881       5.16945272
C        0.84828213       1.05997396       2.91926738
C        4.73256175       4.20544139       4.00190379
H        3.97524259       1.81269927       1.85991968
H        1.60560559       4.95816301       5.06125199
H        3.64289366       0.09100890       1.70311820
H        1.93794957       3.23647135       5.21805468
H        1.93101390       2.37194131       0.55025694
H        3.64983730       5.51740185       6.37091212
H        1.76084745       1.23981879       6.47631087
H        3.81999851       4.38528377       0.44486220
H        0.57263148       5.39025289       1.99556632
H        5.00821299       2.24479644       4.92560063
H        6.03786453       0.25724973       1.62265401
H       -0.45701964       3.40271458       5.29851824
H        0.55052229       2.09616995       2.70194227
H        5.03032398       5.24163768       4.21923049
H        0.39126856       0.76766123       3.86750677
H        5.18957693       3.91313007       3.05366460
O        2.92154974       1.06204715       4.16254971
O        2.65930168       4.20750272       2.75863602
O       -0.42357323       6.21419037       6.26089322
O        6.00441460       3.06872333       0.66027456
32
Lattice="6.675710899476426 -6.980771902e-07 0.039729307285824 -6.594166112e-07 6.243656864724226 1.372558388e-07 -1.1357341453300165 1.663143745e-07 6.857965757191687" Properties=species:S:1:pos:R:3 pbc="T T T"
C        2.34974789       1.05830392       3.06484496
C        3.19022734       4.18013080       3.83283093
C        3.15911349       1.07067568       1.77085945
C        2.38085380       4.19249988       5.12681349
C        2.30966894       1.34085263       0.50668708
C        3.23028935       4.46268089       6.39098967
C        1.09211802       0.42840135       0.42865411
C        4.44783856       3.55023092       6.46902730
C        0.37290196       0.14729186       1.74707992
C        5.16706728       3.26912584       5.15060893
C        0.83651044       1.05160150       2.91693758
C        4.70346380       4.17343696       3.98075185
H        3.96332330       1.80520559       1.86258743
H        1.57664527       4.92702661       5.03507769
H        3.63127977       0.08419291       1.70114397
H        1.90868739       3.20601671       5.19652467
H        1.92239409       2.36788287       0.55308925
H        3.61756201       5.48970999       6.34458753
H        1.76349985       1.23680139       6.45169755
H        3.77645365       4.35862651       0.44597367
H        0.56004038       5.33740926       1.98843473
H        4.97993485       2.21558921       4.90925087
H        5.97527030       0.25391608       1.61904034
H       -0.43530638       3.37576233       5.27865673
H        0.54124172       2.08860288       2.70092580
H        4.99872421       5.21043967       4.19676749
H        0.37812737       0.75821669       3.86400247
H        5.16185114       3.88005823       3.03368955
O        2.90871272       1.04436555       4.16126060
O        2.63127855       4.16618504       2.73641163
O       -0.42107612       6.16644554       6.23144598
O        5.96102005       3.04460719       0.66623880
32
Lattice="6.649863290314615 -2.2515982623e-06 0.0424350750871768 -2.1525593025e-06 6.222303143334053 -6.914190392e-07 -1.1284606814260767 -3.273956503e-07 6.850549301545667" Properties=species:S:1:pos:R:3 pbc="T T T"
C        2.34242527       1.05416659       3.06497561
C        3.17897804       4.16531918       3.82798851
C        3.15327353       1.06600364       1.77247020
C        2.36812176       4.17715468       5.12048644
C        2.30664351       1.33977795       0.50773529
C        3.21473570       4.45093590       6.38522747
C        1.08576400       0.43248219       0.42583866
C        4.43561097       3.54363558       6.46713459
C        0.36868991       0.14350389       1.74309912
C        5.15270156       3.25465854       5.14988226
C        0.82965696       1.04513379       2.91573879
C        4.69174398       4.15628500       3.97723824
H        3.95953711       1.79787534       1.86606299
H        1.56185615       4.90902517       5.02688418
H        3.62207959       0.07811129       1.70253290
H        1.89931394       3.18926250       5.19042183
H        1.92246634       2.36784244       0.55464098
H        3.59891986       5.47899809       6.33832026
H        1.76853021       1.23470074       6.44604163
H        3.75284312       4.34586143       0.44691605
H        0.56067461       5.31228245       1.98046442
H        4.96072750       2.20113313       4.91251835
H        5.94479108       0.24548515       1.61915546
H       -0.42340379       3.35665915       5.27384327
H        0.53314351       2.08222969       2.70222622
H        4.98825470       5.19338226       4.19075264
H        0.37106337       0.74873293       3.86167088
H        5.15034641       3.85988497       3.03131033
O        2.90023978       1.04231966       4.16206642
O        2.62116843       4.15347972       2.73089211
O       -0.42458740       6.15974089       6.21770901
O        5.94594791       3.04858715       0.67526412
32
Lattice="6.627368574686592 3.8576493885e-06 0.0441221454004767 3.6336989417e-06 6.202074023545351 -6.1320117944e-06 -1.1228031659053477 -7.602961703e-06 6.841768074288646" Properties=species:S:1:pos:R:3 pbc="T T T"
C        2.33635294       1.05004226       3.06454515
C        3.16820959       4.15107691       3.82132179
C        3.14817431       1.06241016       1.77316581
C        2.35638726       4.16344182       5.11269873
C        2.30334952       1.33830961       0.50816037
C        3.20120722       4.43934252       6.37770968
C        1.08095444       0.43369428       0.42395157
C        4.42360292       3.53472448       6.46192519
C        0.36460516       0.14049012       1.74014433
C        5.13995117       3.24151553       5.14572932
C        0.82399151       1.04033367       2.91448077
C        4.68056826       4.14136264       3.97139132
H        3.95524288       1.79303759       1.86813074
H        1.54931532       4.89406871       5.01773375
H        3.61540757       0.07398517       1.70284352
H        1.88915257       3.17501695       5.18302297
H        1.92072699       2.36681693       0.55565382
H        3.58382638       5.46785163       6.33021976
H        1.77146928       1.23286521       6.43820605
H        3.73308559       4.33390772       0.44766313
H        0.55879790       5.28902322       1.97522259
H        4.94575505       2.18797522       4.91064663
H        5.91818885       0.24038323       1.61826143
H       -0.41363124       3.34139319       5.26761474
H        0.52727432       2.07756357       2.70231029
H        4.97729376       5.17859080       4.18356259
H        0.36504045       0.74232055       3.85963796
H        5.13952226       3.84334787       3.02623361
O        2.89351827       1.03806115       4.16203983
O        2.61104997       4.13910225       2.72382465
O       -0.42562537       6.14609680       6.20513708
O        5.93018116       3.04507235       0.68073543
32
Lattice="6.616108017640425 4.3942504337e-06 0.039632886874985 4.0593866618e-06 6.183692400686342 -2.8485284542e-06 -1.1253585116921423 -3.8311776058e-06 6.821419002357152" Properties=species:S:1:pos:R:3 pbc="T T T"
C        2.33542436       1.04416051       3.06087023
C        3.15533331       4.13600583       3.80015326
C        3.14526151       1.06293028       1.76865287
C        2.34547523       4.15478227       5.09236545
C        2.29688026       1.33489486       0.50527531
C        3.19384615       4.42673340       6.35575463
C        1.08210652       0.42039682       0.42636122
C        4.40861499       3.51222976       6.43468204
C        0.35893972       0.14164628       1.74201533
C        5.13180862       3.23349606       5.11903607
C        0.82310684       1.04334549       2.91291363
C        4.66765388       4.13519340       3.94812878
H        3.94720958       1.79904866       1.86263174
H        1.54354304       4.89091059       4.99837354
H        3.61958628       0.07827907       1.69619883
H        1.87114017       3.17013555       5.16480942
H        1.90829848       2.36091390       0.55484884
H        3.58244014       5.45275037       6.30618786
H        1.76180266       1.23302819       6.41433531
H        3.72891262       4.32487441       0.44668476
H        0.54059006       5.27119270       1.98293214
H        4.95018311       2.17934830       4.87811062
H        5.90339113       0.25395647       1.61091469
H       -0.41264927       3.34581759       5.25015878
H        0.53227827       2.08124728       2.69661693
H        4.95847120       5.17309764       4.16443658
H        0.36291268       0.75080398       3.85906895
H        5.12785768       3.84265726       3.00198292
O        2.89472939       1.01951949       4.15716315
O        2.59603975       4.11136156       2.70385281
O       -0.41567450       6.09280161       6.19331935
O        5.90638447       3.00093905       0.66772336
32
Lattice="6.587214581988148 -4.5544440905e-06 0.0471337294215572 -4.1484349218e-06 6.16466885502486 -1.83277232559e-05 -1.112695591180399 -1.96306906719e-05 6.825697290429282" Properties=species:S:1:pos:R:3 pbc="T T T"
C        2.32554935       1.04258911       3.06360283
C        3.14895078       4.12491322       3.80919739
C        3.13902278       1.05601746       1.77425296
C        2.33548996       4.13834399       5.09854440
C        2.29732418       1.33533268       0.50880387
C        3.17718446       4.41765004       6.36399700
C        1.07253306       0.43516669       0.42080433
C        4.40197841       3.51748276       6.45199991
C        0.35735387       0.13495595       1.73506308
C        5.11715114       3.21727646       5.13774386
C        0.81395976       1.03187280       2.91214696
C        4.66053739       4.11419718       3.96065967
H        3.94731373       1.78463087       1.87153575
H        1.52719721       4.86696252       5.00126215
H        3.60370347       0.06679271       1.70330365
H        1.87080068       3.14912214       5.16950334
H        1.91723224       2.36451163       0.55722479
H        3.55727634       5.44682852       6.31557253
H        1.77652678       1.22920273       6.42369599
H        3.69798328       4.31155365       0.44910470
H        0.55526563       5.24614413       1.96639753
H        4.91923500       2.16379570       4.90639592
H        5.87083452       0.23125268       1.61668211
H       -0.39632670       3.31357886       5.25611979
H        0.51699045       2.06928437       2.70208371
H        4.95751124       5.15161010       4.17071551
H        0.35437080       0.73125926       3.85598015
H        5.12013293       3.81359100       3.01682242
O        2.88162382       1.03003824       4.16175641
O        2.59287420       4.11236220       2.71104002
O       -0.42697004       6.11902695       6.18281447
O        5.90148153       3.03671450       0.68997494
32
Lattice="6.551885833641699 -3.245602295e-05 0.0498902186850905 -3.06372455336e-05 6.130716622566503 4.0407155954e-05 -1.1036844090851372 5.0219066087e-05 6.810993243414379" Properties=species:S:1:pos:R:3 pbc="T T T"
C        2.31599632       1.03614175       3.06244532
C        3.13217173       4.10149909       3.79845955
C        3.13088787       1.05029566       1.77494271
C        2.31727716       4.11567426       5.08595889
C        2.29201958       1.33246780       0.50910726
C        3.15614646       4.39786184       6.35179367
C        1.06497829       0.43650516       0.41786657
C        4.38319731       3.50189659       6.44303429
C        0.35117238       0.12982877       1.73038941
C        5.09699817       3.19518811       5.13050587
C        0.80514316       1.02427744       2.90981429
C        4.64302533       4.08962009       3.95108676
H        3.94035271       1.77700523       1.87418756
H        1.50780193       4.84238502       4.98671781
H        3.59314766       0.06030402       1.70357395
H        1.85503261       3.12568520       5.15731604
H        1.91426283       2.36226660       0.55816232
H        3.53388670       5.42765955       6.30274609
H        1.78105187       1.22555030       6.41013875
H        3.66711120       4.29086354       0.45076347
H        0.55284584       5.20725492       1.95844651
H        4.89529407       2.14189295       4.90247792
H        5.82934295       0.22240340       1.61535104
H       -0.38117057       3.28781021       5.24553827
H        0.50776654       2.06177797       2.70160097
H        4.94039514       5.12711912       4.15930327
H        0.34508348       0.72134657       3.85248251
H        5.10308168       3.78666472       3.00841182
O        2.87113114       1.02337039       4.16120128
O        2.57703890       4.08872106       2.69970632
O       -0.42861332       6.09485427       6.16247642
O        5.87677322       3.02944556       0.69848084
